
  Avogadro10312500513D

364402  0  0  0  0  0  0  0  0999 V2000
    0.9112   -0.0384   -0.9420 C   0  0  0  0  0  0  0  0  0  0  0  0
    3.2398   -0.1416   -0.1074 C   0  0  0  0  0  0  0  0  0  0  0  0
    2.1914    0.5012   -0.8350 C   0  0  0  0  0  0  0  0  0  0  0  0
    2.9200   -1.3767    0.5338 C   0  0  0  0  0  0  0  0  0  0  0  0
    0.6268   -1.2449   -0.3268 C   0  0  0  0  0  0  0  0  0  0  0  0
    1.6094   -1.9142    0.4047 C   0  0  0  0  0  0  0  0  0  0  0  0
    4.5729    0.3367    0.0370 C   0  0  0  0  0  0  0  0  0  0  0  0
    5.5115   -0.3773    0.7966 C   0  0  0  0  0  0  0  0  0  0  0  0
    3.8864   -2.0939    1.3167 C   0  0  0  0  0  0  0  0  0  0  0  0
    5.1995   -1.5734    1.4607 C   0  0  0  0  0  0  0  0  0  0  0  0
    6.1471   -2.2511    2.2682 C   0  0  0  0  0  0  0  0  0  0  0  0
    5.7795   -3.4419    2.9056 C   0  0  0  0  0  0  0  0  0  0  0  0
    3.5367   -3.3238    1.9538 C   0  0  0  0  0  0  0  0  0  0  0  0
    4.5166   -4.0024    2.7299 C   0  0  0  0  0  0  0  0  0  0  0  0
    2.2292   -3.8218    1.7460 C   0  0  0  0  0  0  0  0  0  0  0  0
    1.2815   -3.1269    1.0035 C   0  0  0  0  0  0  0  0  0  0  0  0
    5.2301    1.8486   -0.6898 S   0  0  0  0  0  0  0  0  0  0  0  0
    2.4118    1.7034   -1.4617 O   0  0  0  0  0  0  0  0  0  0  0  0
    7.5653   -1.7497    2.4964 C   0  0  0  0  0  0  0  0  0  0  0  0
    8.5688   -2.0816    1.4076 C   0  0  0  0  0  0  0  0  0  0  0  0
   10.5713   -1.4745    0.0179 C   0  0  0  0  0  0  0  0  0  0  0  0
    9.5877   -1.1895    1.0275 C   0  0  0  0  0  0  0  0  0  0  0  0
   10.5452   -2.7754   -0.5618 C   0  0  0  0  0  0  0  0  0  0  0  0
    8.5491   -3.3232    0.7838 C   0  0  0  0  0  0  0  0  0  0  0  0
    9.5067   -3.6532   -0.1740 C   0  0  0  0  0  0  0  0  0  0  0  0
   11.5807   -0.5579   -0.4330 C   0  0  0  0  0  0  0  0  0  0  0  0
   12.5508   -0.9665   -1.3779 C   0  0  0  0  0  0  0  0  0  0  0  0
   11.5409   -3.1745   -1.5115 C   0  0  0  0  0  0  0  0  0  0  0  0
   12.5164   -2.2561   -1.9560 C   0  0  0  0  0  0  0  0  0  0  0  0
   11.5256   -4.5888   -2.0940 C   0  0  0  0  0  0  0  0  0  0  0  0
   12.8703   -5.0986   -2.6088 C   0  0  0  0  0  0  0  0  0  0  0  0
   13.3618   -4.0391   -3.5830 C   0  0  0  0  0  0  0  0  0  0  0  0
   13.4838   -2.6383   -3.0537 C   0  0  0  0  0  0  0  0  0  0  0  0
   13.7696   -4.3113   -4.7129 O   0  0  0  0  0  0  0  0  0  0  0  0
   13.5109   -0.0146   -1.7112 O   0  0  0  0  0  0  0  0  0  0  0  0
    4.2057   -5.1374    3.5136 N   0  0  0  0  0  0  0  0  0  0  0  0
    1.8625   -5.0468    2.2596 O   0  0  0  0  0  0  0  0  0  0  0  0
    9.6421    0.0160    1.6868 O   0  0  0  0  0  0  0  0  0  0  0  0
   11.6408    0.8616    0.0979 C   0  0  0  0  0  0  0  0  0  0  0  0
   14.8422   -0.3573   -1.5917 C   0  0  0  0  0  0  0  0  0  0  0  0
   16.9402   -0.4624   -2.7788 C   0  0  0  0  0  0  0  0  0  0  0  0
   15.6562    0.0653   -2.6361 C   0  0  0  0  0  0  0  0  0  0  0  0
   17.4067   -1.5056   -1.9332 C   0  0  0  0  0  0  0  0  0  0  0  0
   15.3755   -1.1583   -0.5770 C   0  0  0  0  0  0  0  0  0  0  0  0
   16.6202   -1.7866   -0.8090 C   0  0  0  0  0  0  0  0  0  0  0  0
   17.6691    0.0260   -3.8408 O   0  0  0  0  0  0  0  0  0  0  0  0
   18.5415   -2.4288   -2.0417 C   0  0  0  0  0  0  0  0  0  0  0  0
   17.3782   -2.9521    0.1733 S   0  0  0  0  0  0  0  0  0  0  0  0
   20.5099   -3.5762   -2.9213 C   0  0  0  0  0  0  0  0  0  0  0  0
   19.5636   -2.5529   -3.0155 C   0  0  0  0  0  0  0  0  0  0  0  0
   20.4042   -4.5533   -1.9350 C   0  0  0  0  0  0  0  0  0  0  0  0
   18.4962   -3.4144   -1.0525 C   0  0  0  0  0  0  0  0  0  0  0  0
   19.3177   -4.5885   -1.0451 C   0  0  0  0  0  0  0  0  0  0  0  0
   21.4075   -5.4929   -1.8955 O   0  0  0  0  0  0  0  0  0  0  0  0
   22.5075   -5.2008   -1.1276 C   0  0  0  0  0  0  0  0  0  0  0  0
   24.6909   -5.3943   -0.5471 C   0  0  0  0  0  0  0  0  0  0  0  0
   23.7907   -5.7758   -1.4694 C   0  0  0  0  0  0  0  0  0  0  0  0
   24.0329   -4.5236    0.4836 C   0  0  0  0  0  0  0  0  0  0  0  0
   22.6172   -4.4677   -0.0063 C   0  0  0  0  0  0  0  0  0  0  0  0
   24.0396   -6.5960   -2.6829 C   0  0  0  0  0  0  0  0  0  0  0  0
   19.0558   -5.7072    0.0000 C   0  0  0  0  0  0  0  0  0  0  0  0
   19.0558   -6.7086    0.0000 C   0  0  0  0  0  0  0  0  0  0  0  0
   19.0558   -7.7099    0.0000 C   0  0  0  0  0  0  0  0  0  0  0  0
   19.7714  -10.0601   -0.3081 C   0  0  0  0  0  0  0  0  0  0  0  0
   19.7054   -8.7283   -0.7761 C   0  0  0  0  0  0  0  0  0  0  0  0
   19.0591  -10.5650    0.7109 N   0  0  0  0  0  0  0  0  0  0  0  0
   18.3366   -8.2995    1.0797 C   0  0  0  0  0  0  0  0  0  0  0  0
   18.2983   -9.6659    1.3402 C   0  0  0  0  0  0  0  0  0  0  0  0
   20.4865   -8.3996   -2.0271 C   0  0  0  0  0  0  0  0  0  0  0  0
   14.6404   -1.4068    0.6689 C   0  0  0  0  0  0  0  0  0  0  0  0
   14.3533   -0.5688    1.5025 O   0  0  0  0  0  0  0  0  0  0  0  0
   14.2720   -2.6954    0.7825 O   0  0  0  0  0  0  0  0  0  0  0  0
   17.2622  -10.1229    2.1523 O   0  0  0  0  0  0  0  0  0  0  0  0
   20.7731  -10.8706   -0.8129 O   0  0  0  0  0  0  0  0  0  0  0  0
   21.7873  -10.9439    0.2055 C   0  0  0  0  0  0  0  0  0  0  0  0
   23.1532  -11.3113   -0.3439 C   0  0  0  0  0  0  0  0  0  0  0  0
   25.5473  -11.5019   -0.0052 C   0  0  0  0  0  0  0  0  0  0  0  0
   24.2985  -11.0233    0.4173 C   0  0  0  0  0  0  0  0  0  0  0  0
   25.6955  -12.2689   -1.1618 C   0  0  0  0  0  0  0  0  0  0  0  0
   23.2996  -12.0115   -1.5444 C   0  0  0  0  0  0  0  0  0  0  0  0
   24.5512  -12.4917   -1.9584 C   0  0  0  0  0  0  0  0  0  0  0  0
   26.7960  -11.3879    0.5557 N   0  0  0  0  0  0  0  0  0  0  0  0
   27.7342  -12.0891   -0.1627 C   0  0  0  0  0  0  0  0  0  0  0  0
   27.0711  -12.6890   -1.2348 C   0  0  0  0  0  0  0  0  0  0  0  0
   29.1051  -12.2410    0.0807 C   0  0  0  0  0  0  0  0  0  0  0  0
   29.8138  -13.0519   -0.7993 C   0  0  0  0  0  0  0  0  0  0  0  0
   27.8087  -13.5401   -2.1022 C   0  0  0  0  0  0  0  0  0  0  0  0
   29.1903  -13.6927   -1.8608 C   0  0  0  0  0  0  0  0  0  0  0  0
   31.1545  -13.2573   -0.6396 O   0  0  0  0  0  0  0  0  0  0  0  0
   27.1852  -14.2978   -3.2418 C   0  0  0  0  0  0  0  0  0  0  0  0
   24.1490  -10.2988    1.5747 O   0  0  0  0  0  0  0  0  0  0  0  0
   16.1774  -10.4370    1.3536 C   0  0  0  0  0  0  0  0  0  0  0  0
   15.2363  -12.0168   -0.1640 C   0  0  0  0  0  0  0  0  0  0  0  0
   16.0463  -11.7501    0.9339 C   0  0  0  0  0  0  0  0  0  0  0  0
   14.4773  -10.9975   -0.7756 C   0  0  0  0  0  0  0  0  0  0  0  0
   15.3941   -9.4156    0.8043 C   0  0  0  0  0  0  0  0  0  0  0  0
   14.5735   -9.6746   -0.2970 C   0  0  0  0  0  0  0  0  0  0  0  0
   15.2044  -13.2975   -0.6596 O   0  0  0  0  0  0  0  0  0  0  0  0
   16.4780  -13.6543   -1.2386 C   0  0  0  0  0  0  0  0  0  0  0  0
   16.7839  -15.1170   -1.0496 C   0  0  0  0  0  0  0  0  0  0  0  0
   18.5012  -16.9076   -1.0407 C   0  0  0  0  0  0  0  0  0  0  0  0
   18.1094  -15.5756   -0.9774 C   0  0  0  0  0  0  0  0  0  0  0  0
   17.5069  -17.8933   -1.0929 C   0  0  0  0  0  0  0  0  0  0  0  0
   15.8152  -16.1423   -1.0587 C   0  0  0  0  0  0  0  0  0  0  0  0
   16.1524  -17.5083   -1.0549 C   0  0  0  0  0  0  0  0  0  0  0  0
   19.2108  -14.7780   -0.8544 O   0  0  0  0  0  0  0  0  0  0  0  0
   20.3041  -15.5864   -0.8964 C   0  0  0  0  0  0  0  0  0  0  0  0
   19.9252  -16.9082   -1.0853 C   0  0  0  0  0  0  0  0  0  0  0  0
   21.6243  -15.1534   -0.8065 C   0  0  0  0  0  0  0  0  0  0  0  0
   22.6050  -16.1124   -1.0635 C   0  0  0  0  0  0  0  0  0  0  0  0
   20.9292  -17.8718   -1.3007 C   0  0  0  0  0  0  0  0  0  0  0  0
   22.2651  -17.4426   -1.3353 C   0  0  0  0  0  0  0  0  0  0  0  0
   23.9236  -15.7452   -1.0882 O   0  0  0  0  0  0  0  0  0  0  0  0
   23.1899  -18.2877   -1.9028 O   0  0  0  0  0  0  0  0  0  0  0  0
   23.8825  -19.1661   -1.1085 C   0  0  0  0  0  0  0  0  0  0  0  0
   25.1287  -19.8406    0.8489 C   0  0  0  0  0  0  0  0  0  0  0  0
   24.2914  -18.9219    0.1996 C   0  0  0  0  0  0  0  0  0  0  0  0
   25.5620  -21.0117    0.2040 C   0  0  0  0  0  0  0  0  0  0  0  0
   24.2913  -20.3347   -1.7542 C   0  0  0  0  0  0  0  0  0  0  0  0
   25.1146  -21.2531   -1.1026 C   0  0  0  0  0  0  0  0  0  0  0  0
   26.5044  -21.9400    0.8426 C   0  0  0  0  0  0  0  0  0  0  0  0
   28.7163  -22.4249    1.7175 C   0  0  0  0  0  0  0  0  0  0  0  0
   27.8038  -21.5247    1.1740 C   0  0  0  0  0  0  0  0  0  0  0  0
   28.3607  -23.7481    1.9541 C   0  0  0  0  0  0  0  0  0  0  0  0
   26.1519  -23.2777    1.0863 C   0  0  0  0  0  0  0  0  0  0  0  0
   27.0713  -24.1740    1.6399 C   0  0  0  0  0  0  0  0  0  0  0  0
   29.9707  -21.9673    1.9964 O   0  0  0  0  0  0  0  0  0  0  0  0
   14.4784  -15.8244   -1.0673 O   0  0  0  0  0  0  0  0  0  0  0  0
   15.1051  -18.5987   -0.9847 C   0  0  0  0  0  0  0  0  0  0  0  0
   15.1344  -19.3446    0.3163 C   0  0  0  0  0  0  0  0  0  0  0  0
   15.3167  -20.9617    1.9869 C   0  0  0  0  0  0  0  0  0  0  0  0
   15.4663  -20.6314    0.5313 C   0  0  0  0  0  0  0  0  0  0  0  0
   14.8410  -19.6578    2.5537 C   0  0  0  0  0  0  0  0  0  0  0  0
   14.7449  -18.7456    1.5764 C   0  0  0  0  0  0  0  0  0  0  0  0
   13.8365   -8.5104   -0.9336 C   0  0  0  0  0  0  0  0  0  0  0  0
   13.1377   -8.8263   -2.2779 C   0  0  0  0  0  0  0  0  0  0  0  0
   12.5287  -10.2349   -2.1570 C   0  0  0  0  0  0  0  0  0  0  0  0
   13.6262  -11.2916   -1.9811 C   0  0  0  0  0  0  0  0  0  0  0  0
   12.1108   -7.6897   -2.6596 C   0  0  0  0  0  0  0  0  0  0  0  0
   10.9441   -8.1575   -3.6171 C   0  0  0  0  0  0  0  0  0  0  0  0
   10.5055   -9.5929   -3.3545 C   0  0  0  0  0  0  0  0  0  0  0  0
   11.6705  -10.5571   -3.3634 C   0  0  0  0  0  0  0  0  0  0  0  0
   12.8431   -6.4753   -3.3224 C   0  0  0  0  0  0  0  0  0  0  0  0
    9.7718   -7.1275   -3.5620 C   0  0  0  0  0  0  0  0  0  0  0  0
    8.3609   -7.5546   -4.0088 C   0  0  0  0  0  0  0  0  0  0  0  0
    7.4535   -7.8155   -2.8236 C   0  0  0  0  0  0  0  0  0  0  0  0
    6.8210   -9.2349   -0.9504 C   0  0  0  0  0  0  0  0  0  0  0  0
    7.5000   -9.0365   -2.1519 C   0  0  0  0  0  0  0  0  0  0  0  0
    5.9805   -8.1998   -0.4441 C   0  0  0  0  0  0  0  0  0  0  0  0
    6.4987   -6.8738   -2.4120 C   0  0  0  0  0  0  0  0  0  0  0  0
    5.6497   -7.1175   -1.3082 C   0  0  0  0  0  0  0  0  0  0  0  0
    5.3361   -8.2365    0.8109 C   0  0  0  0  0  0  0  0  0  0  0  0
    4.0658   -7.6918    0.8822 C   0  0  0  0  0  0  0  0  0  0  0  0
    4.3719   -6.4651   -1.1450 C   0  0  0  0  0  0  0  0  0  0  0  0
    3.5108   -7.0586   -0.2339 C   0  0  0  0  0  0  0  0  0  0  0  0
    2.1258   -7.1378   -0.5384 C   0  0  0  0  0  0  0  0  0  0  0  0
    1.5431   -6.0986   -1.2654 C   0  0  0  0  0  0  0  0  0  0  0  0
    3.7940   -5.4220   -1.9138 C   0  0  0  0  0  0  0  0  0  0  0  0
    2.4066   -5.1746   -1.8831 C   0  0  0  0  0  0  0  0  0  0  0  0
    6.6286  -10.9277   -0.3252 S   0  0  0  0  0  0  0  0  0  0  0  0
    5.8509   -8.9581    2.0236 C   0  0  0  0  0  0  0  0  0  0  0  0
    1.3658   -8.3381   -0.3472 C   0  0  0  0  0  0  0  0  0  0  0  0
   -0.0135   -8.3891   -0.5769 C   0  0  0  0  0  0  0  0  0  0  0  0
    0.1428   -6.0991   -1.4221 C   0  0  0  0  0  0  0  0  0  0  0  0
   -0.6299   -7.2111   -1.0363 C   0  0  0  0  0  0  0  0  0  0  0  0
    2.0082   -9.5718   -0.1344 C   0  0  0  0  0  0  0  0  0  0  0  0
    1.3894  -10.8325   -0.0868 C   0  0  0  0  0  0  0  0  0  0  0  0
   -0.6844   -9.6380   -0.4351 C   0  0  0  0  0  0  0  0  0  0  0  0
    0.0092  -10.8503   -0.1980 C   0  0  0  0  0  0  0  0  0  0  0  0
    2.4097  -12.0024    0.0000 C   0  0  0  0  0  0  0  0  0  0  0  0
    2.4097  -13.0037    0.0000 C   0  0  0  0  0  0  0  0  0  0  0  0
    2.4097  -14.0051    0.0000 C   0  0  0  0  0  0  0  0  0  0  0  0
    2.4097  -15.0064    0.0000 C   0  0  0  0  0  0  0  0  0  0  0  0
    3.2492  -17.4258    0.0743 C   0  0  0  0  0  0  0  0  0  0  0  0
    3.4811  -16.0075    0.0160 C   0  0  0  0  0  0  0  0  0  0  0  0
    1.9291  -17.9448    0.0437 C   0  0  0  0  0  0  0  0  0  0  0  0
    1.0897  -15.6426   -0.0451 C   0  0  0  0  0  0  0  0  0  0  0  0
    0.8649  -17.0435   -0.1613 C   0  0  0  0  0  0  0  0  0  0  0  0
    4.8416  -15.6208   -0.0048 C   0  0  0  0  0  0  0  0  0  0  0  0
    5.9070  -16.5285    0.0167 C   0  0  0  0  0  0  0  0  0  0  0  0
    4.3542  -18.3474    0.1473 C   0  0  0  0  0  0  0  0  0  0  0  0
    5.7028  -17.9140    0.0908 C   0  0  0  0  0  0  0  0  0  0  0  0
   -0.1765  -14.7654    0.0106 C   0  0  0  0  0  0  0  0  0  0  0  0
   -0.5173  -17.5525   -0.5299 C   0  0  0  0  0  0  0  0  0  0  0  0
    4.1076  -19.7351    0.2691 C   0  0  0  0  0  0  0  0  0  0  0  0
    1.7473  -19.3428    0.2213 C   0  0  0  0  0  0  0  0  0  0  0  0
    2.8131  -20.2192    0.3308 C   0  0  0  0  0  0  0  0  0  0  0  0
    6.7797  -18.8793    0.1019 C   0  0  0  0  0  0  0  0  0  0  0  0
    6.4733  -20.2470    0.2316 C   0  0  0  0  0  0  0  0  0  0  0  0
    5.1498  -20.6543    0.3321 C   0  0  0  0  0  0  0  0  0  0  0  0
    8.1559  -18.5711   -0.0261 C   0  0  0  0  0  0  0  0  0  0  0  0
    9.1664  -19.5582   -0.0447 C   0  0  0  0  0  0  0  0  0  0  0  0
    7.4766  -21.2293    0.2438 C   0  0  0  0  0  0  0  0  0  0  0  0
    8.8272  -20.9146    0.0717 C   0  0  0  0  0  0  0  0  0  0  0  0
    9.8966  -22.0022    0.0832 C   0  0  0  0  0  0  0  0  0  0  0  0
   11.1763  -21.5224   -0.6365 C   0  0  0  0  0  0  0  0  0  0  0  0
   11.6244  -20.1923   -0.0354 C   0  0  0  0  0  0  0  0  0  0  0  0
   10.5862  -19.1047   -0.2734 C   0  0  0  0  0  0  0  0  0  0  0  0
    9.4581  -23.3567   -0.5114 C   0  0  0  0  0  0  0  0  0  0  0  0
   10.5778  -24.3977   -0.4560 C   0  0  0  0  0  0  0  0  0  0  0  0
   11.8532  -23.9008   -1.1237 C   0  0  0  0  0  0  0  0  0  0  0  0
   12.2974  -22.5651   -0.5438 C   0  0  0  0  0  0  0  0  0  0  0  0
   10.1589  -25.5901   -1.1128 O   0  0  0  0  0  0  0  0  0  0  0  0
    0.4893  -19.8804    0.3523 O   0  0  0  0  0  0  0  0  0  0  0  0
    8.1306  -11.7937   -0.6751 C   0  0  0  0  0  0  0  0  0  0  0  0
   10.3516  -12.5634   -0.0562 C   0  0  0  0  0  0  0  0  0  0  0  0
    9.2406  -11.7305    0.1539 C   0  0  0  0  0  0  0  0  0  0  0  0
   10.3883  -13.4702   -1.1000 C   0  0  0  0  0  0  0  0  0  0  0  0
    8.1650  -12.7151   -1.7336 C   0  0  0  0  0  0  0  0  0  0  0  0
    9.2841  -13.5380   -1.9496 C   0  0  0  0  0  0  0  0  0  0  0  0
   10.8596  -11.3550    1.7803 C   0  0  0  0  0  0  0  0  0  0  0  0
    9.4848  -10.8874    1.3697 C   0  0  0  0  0  0  0  0  0  0  0  0
   11.3460  -12.3088    0.9715 C   0  0  0  0  0  0  0  0  0  0  0  0
    0.1275    0.4659   -1.4990 H   0  0  0  0  0  0  0  0  0  0  0  0
   -0.3765   -1.6552   -0.4194 H   0  0  0  0  0  0  0  0  0  0  0  0
    6.5184    0.0317    0.8644 H   0  0  0  0  0  0  0  0  0  0  0  0
    6.4908   -3.9465    3.5566 H   0  0  0  0  0  0  0  0  0  0  0  0
    0.2814   -3.5369    0.8912 H   0  0  0  0  0  0  0  0  0  0  0  0
    4.0783    2.2521   -1.2470 H   0  0  0  0  0  0  0  0  0  0  0  0
    1.5856    2.0150   -1.8670 H   0  0  0  0  0  0  0  0  0  0  0  0
    7.9559   -2.1678    3.4346 H   0  0  0  0  0  0  0  0  0  0  0  0
    7.5128   -0.6713    2.6846 H   0  0  0  0  0  0  0  0  0  0  0  0
    7.7892   -4.0639    1.0241 H   0  0  0  0  0  0  0  0  0  0  0  0
    9.3979   -4.6375   -0.6237 H   0  0  0  0  0  0  0  0  0  0  0  0
   10.7832   -4.5868   -2.8989 H   0  0  0  0  0  0  0  0  0  0  0  0
   11.2137   -5.2883   -1.3150 H   0  0  0  0  0  0  0  0  0  0  0  0
   13.5930   -5.1493   -1.7843 H   0  0  0  0  0  0  0  0  0  0  0  0
   13.3584   -1.9476   -3.8949 H   0  0  0  0  0  0  0  0  0  0  0  0
   14.5095   -2.6007   -2.6901 H   0  0  0  0  0  0  0  0  0  0  0  0
    3.3332   -5.5579    3.1816 H   0  0  0  0  0  0  0  0  0  0  0  0
    4.9628   -5.8085    3.5601 H   0  0  0  0  0  0  0  0  0  0  0  0
    1.0895   -5.3692    1.7638 H   0  0  0  0  0  0  0  0  0  0  0  0
    9.6452   -0.1692    2.6406 H   0  0  0  0  0  0  0  0  0  0  0  0
   11.9083    0.8602    1.1592 H   0  0  0  0  0  0  0  0  0  0  0  0
   10.6816    1.3660   -0.0579 H   0  0  0  0  0  0  0  0  0  0  0  0
   12.3817    1.4858   -0.4099 H   0  0  0  0  0  0  0  0  0  0  0  0
   15.2739    0.7585   -3.3820 H   0  0  0  0  0  0  0  0  0  0  0  0
   18.6090   -0.0724   -3.6163 H   0  0  0  0  0  0  0  0  0  0  0  0
   21.3269   -3.6208   -3.6386 H   0  0  0  0  0  0  0  0  0  0  0  0
   19.6419   -1.8601   -3.8468 H   0  0  0  0  0  0  0  0  0  0  0  0
   25.7395   -5.6517   -0.5448 H   0  0  0  0  0  0  0  0  0  0  0  0
   24.4838   -3.5274    0.5064 H   0  0  0  0  0  0  0  0  0  0  0  0
   24.0894   -4.9784    1.4770 H   0  0  0  0  0  0  0  0  0  0  0  0
   21.8243   -3.9380    0.4960 H   0  0  0  0  0  0  0  0  0  0  0  0
   23.5067   -7.5485   -2.6298 H   0  0  0  0  0  0  0  0  0  0  0  0
   25.1054   -6.8207   -2.7982 H   0  0  0  0  0  0  0  0  0  0  0  0
   23.7147   -6.0639   -3.5830 H   0  0  0  0  0  0  0  0  0  0  0  0
   18.0458   -5.4187    0.3568 H   0  0  0  0  0  0  0  0  0  0  0  0
   19.6069   -5.2585    0.8644 H   0  0  0  0  0  0  0  0  0  0  0  0
   20.1697   -6.7037   -0.0699 H   0  0  0  0  0  0  0  0  0  0  0  0
   18.5388   -6.7278   -0.9936 H   0  0  0  0  0  0  0  0  0  0  0  0
   17.7313   -7.6674    1.7364 H   0  0  0  0  0  0  0  0  0  0  0  0
   20.4819   -9.2421   -2.7269 H   0  0  0  0  0  0  0  0  0  0  0  0
   20.0357   -7.5631   -2.5668 H   0  0  0  0  0  0  0  0  0  0  0  0
   21.5190   -8.1684   -1.7622 H   0  0  0  0  0  0  0  0  0  0  0  0
   13.7147   -2.7063    1.5897 H   0  0  0  0  0  0  0  0  0  0  0  0
   21.4994  -11.7139    0.9328 H   0  0  0  0  0  0  0  0  0  0  0  0
   21.8774   -9.9773    0.7216 H   0  0  0  0  0  0  0  0  0  0  0  0
   22.4286  -12.2277   -2.1619 H   0  0  0  0  0  0  0  0  0  0  0  0
   24.6222  -13.0633   -2.8800 H   0  0  0  0  0  0  0  0  0  0  0  0
   27.0040  -10.8926    1.4084 H   0  0  0  0  0  0  0  0  0  0  0  0
   29.5825  -11.7520    0.9211 H   0  0  0  0  0  0  0  0  0  0  0  0
   29.7879  -14.3336   -2.5059 H   0  0  0  0  0  0  0  0  0  0  0  0
   31.4530  -12.7718    0.1459 H   0  0  0  0  0  0  0  0  0  0  0  0
   27.8945  -14.9938   -3.7018 H   0  0  0  0  0  0  0  0  0  0  0  0
   26.8422  -13.6018   -4.0127 H   0  0  0  0  0  0  0  0  0  0  0  0
   26.3375  -14.8885   -2.8801 H   0  0  0  0  0  0  0  0  0  0  0  0
   25.0137   -9.9544    1.8424 H   0  0  0  0  0  0  0  0  0  0  0  0
   16.6651  -12.5249    1.3779 H   0  0  0  0  0  0  0  0  0  0  0  0
   15.4941   -8.3983    1.1712 H   0  0  0  0  0  0  0  0  0  0  0  0
   16.4062  -13.4611   -2.3159 H   0  0  0  0  0  0  0  0  0  0  0  0
   17.3091  -13.0505   -0.8535 H   0  0  0  0  0  0  0  0  0  0  0  0
   17.7823  -18.9440   -1.1230 H   0  0  0  0  0  0  0  0  0  0  0  0
   21.8441  -14.1157   -0.6117 H   0  0  0  0  0  0  0  0  0  0  0  0
   20.6750  -18.9004   -1.5344 H   0  0  0  0  0  0  0  0  0  0  0  0
   24.0063  -14.8250   -0.7834 H   0  0  0  0  0  0  0  0  0  0  0  0
   25.4650  -19.6224    1.8606 H   0  0  0  0  0  0  0  0  0  0  0  0
   24.0164  -18.0049    0.7109 H   0  0  0  0  0  0  0  0  0  0  0  0
   23.9924  -20.5159   -2.7834 H   0  0  0  0  0  0  0  0  0  0  0  0
   25.4435  -22.1403   -1.6393 H   0  0  0  0  0  0  0  0  0  0  0  0
   28.1189  -20.5015    0.9820 H   0  0  0  0  0  0  0  0  0  0  0  0
   29.0676  -24.4555    2.3754 H   0  0  0  0  0  0  0  0  0  0  0  0
   25.1518  -23.6293    0.8402 H   0  0  0  0  0  0  0  0  0  0  0  0
   26.7799  -25.2058    1.8183 H   0  0  0  0  0  0  0  0  0  0  0  0
   30.5072  -22.7100    2.3177 H   0  0  0  0  0  0  0  0  0  0  0  0
   14.3956  -14.8738   -0.8519 H   0  0  0  0  0  0  0  0  0  0  0  0
   14.0997  -18.1948   -1.1476 H   0  0  0  0  0  0  0  0  0  0  0  0
   15.2759  -19.2899   -1.8211 H   0  0  0  0  0  0  0  0  0  0  0  0
   16.2728  -21.2603    2.4265 H   0  0  0  0  0  0  0  0  0  0  0  0
   14.5758  -21.7523    2.1374 H   0  0  0  0  0  0  0  0  0  0  0  0
   15.7854  -21.3355   -0.2221 H   0  0  0  0  0  0  0  0  0  0  0  0
   14.6141  -19.4881    3.5953 H   0  0  0  0  0  0  0  0  0  0  0  0
   14.4303  -17.7182    1.6877 H   0  0  0  0  0  0  0  0  0  0  0  0
   13.0893   -8.1742   -0.2026 H   0  0  0  0  0  0  0  0  0  0  0  0
   14.5393   -7.6820   -1.0891 H   0  0  0  0  0  0  0  0  0  0  0  0
   13.9041   -8.8761   -3.0647 H   0  0  0  0  0  0  0  0  0  0  0  0
   11.8914  -10.2564   -1.2616 H   0  0  0  0  0  0  0  0  0  0  0  0
   14.2719  -11.3294   -2.8673 H   0  0  0  0  0  0  0  0  0  0  0  0
   13.1586  -12.2765   -1.8706 H   0  0  0  0  0  0  0  0  0  0  0  0
   11.6444   -7.3722   -1.7203 H   0  0  0  0  0  0  0  0  0  0  0  0
   11.3268   -8.1538   -4.6481 H   0  0  0  0  0  0  0  0  0  0  0  0
   10.0342   -9.6478   -2.3712 H   0  0  0  0  0  0  0  0  0  0  0  0
    9.7899   -9.9253   -4.1119 H   0  0  0  0  0  0  0  0  0  0  0  0
   11.2930  -11.5829   -3.3013 H   0  0  0  0  0  0  0  0  0  0  0  0
   12.2415  -10.4783   -4.2961 H   0  0  0  0  0  0  0  0  0  0  0  0
   13.8895   -6.7485   -3.5173 H   0  0  0  0  0  0  0  0  0  0  0  0
   12.4237   -6.3200   -4.3247 H   0  0  0  0  0  0  0  0  0  0  0  0
    9.7020   -6.7137   -2.5491 H   0  0  0  0  0  0  0  0  0  0  0  0
   10.0655   -6.2920   -4.2102 H   0  0  0  0  0  0  0  0  0  0  0  0
    8.3729   -8.4110   -4.6897 H   0  0  0  0  0  0  0  0  0  0  0  0
    7.9247   -6.7331   -4.5929 H   0  0  0  0  0  0  0  0  0  0  0  0
    8.0302   -9.8651   -2.6031 H   0  0  0  0  0  0  0  0  0  0  0  0
    6.3437   -5.9893   -3.0262 H   0  0  0  0  0  0  0  0  0  0  0  0
    3.4355   -7.9178    1.7424 H   0  0  0  0  0  0  0  0  0  0  0  0
    4.4133   -4.8199   -2.5734 H   0  0  0  0  0  0  0  0  0  0  0  0
    2.0048   -4.3586   -2.4793 H   0  0  0  0  0  0  0  0  0  0  0  0
    6.9401   -9.0599    1.9960 H   0  0  0  0  0  0  0  0  0  0  0  0
    5.6226   -8.3790    2.9262 H   0  0  0  0  0  0  0  0  0  0  0  0
    5.3830   -9.9414    2.1274 H   0  0  0  0  0  0  0  0  0  0  0  0
   -0.3474   -5.2704   -1.9294 H   0  0  0  0  0  0  0  0  0  0  0  0
   -1.7005   -7.1998   -1.2307 H   0  0  0  0  0  0  0  0  0  0  0  0
    3.0953   -9.6022   -0.1307 H   0  0  0  0  0  0  0  0  0  0  0  0
   -1.7612   -9.6850   -0.5921 H   0  0  0  0  0  0  0  0  0  0  0  0
   -0.5441  -11.7827   -0.1680 H   0  0  0  0  0  0  0  0  0  0  0  0
    3.0173  -11.6337    0.8630 H   0  0  0  0  0  0  0  0  0  0  0  0
    3.0990  -11.6749   -0.8159 H   0  0  0  0  0  0  0  0  0  0  0  0
    1.6981  -12.9680    0.8902 H   0  0  0  0  0  0  0  0  0  0  0  0
    1.6783  -12.9807   -0.8766 H   0  0  0  0  0  0  0  0  0  0  0  0
    3.0805  -14.0097   -0.9161 H   0  0  0  0  0  0  0  0  0  0  0  0
    3.0881  -14.0078    0.9102 H   0  0  0  0  0  0  0  0  0  0  0  0
    5.1090  -14.5639   -0.0465 H   0  0  0  0  0  0  0  0  0  0  0  0
    6.9087  -16.1080   -0.0125 H   0  0  0  0  0  0  0  0  0  0  0  0
   -1.0563  -15.3166    0.3544 H   0  0  0  0  0  0  0  0  0  0  0  0
   -0.0833  -13.9730    0.7564 H   0  0  0  0  0  0  0  0  0  0  0  0
   -0.3813  -14.3396   -0.9762 H   0  0  0  0  0  0  0  0  0  0  0  0
   -1.0740  -16.8251   -1.1297 H   0  0  0  0  0  0  0  0  0  0  0  0
   -1.0945  -17.7948    0.3673 H   0  0  0  0  0  0  0  0  0  0  0  0
   -0.4576  -18.4196   -1.1960 H   0  0  0  0  0  0  0  0  0  0  0  0
    2.6344  -21.2836    0.4541 H   0  0  0  0  0  0  0  0  0  0  0  0
    4.9250  -21.7152    0.4305 H   0  0  0  0  0  0  0  0  0  0  0  0
    8.4703  -17.5365   -0.1423 H   0  0  0  0  0  0  0  0  0  0  0  0
    7.1782  -22.2655    0.3769 H   0  0  0  0  0  0  0  0  0  0  0  0
   10.1366  -22.1713    1.1437 H   0  0  0  0  0  0  0  0  0  0  0  0
   10.9524  -21.3611   -1.7018 H   0  0  0  0  0  0  0  0  0  0  0  0
   12.5648  -19.8785   -0.4906 H   0  0  0  0  0  0  0  0  0  0  0  0
   11.8042  -20.3070    1.0412 H   0  0  0  0  0  0  0  0  0  0  0  0
   10.6648  -18.7605   -1.3126 H   0  0  0  0  0  0  0  0  0  0  0  0
   10.8154  -18.2498    0.3742 H   0  0  0  0  0  0  0  0  0  0  0  0
    9.1212  -23.2276   -1.5487 H   0  0  0  0  0  0  0  0  0  0  0  0
    8.5982  -23.7696    0.0291 H   0  0  0  0  0  0  0  0  0  0  0  0
   10.7915  -24.6525    0.5886 H   0  0  0  0  0  0  0  0  0  0  0  0
   11.6907  -23.8039   -2.2049 H   0  0  0  0  0  0  0  0  0  0  0  0
   12.6494  -24.6464   -1.0074 H   0  0  0  0  0  0  0  0  0  0  0  0
   13.1815  -22.2135   -1.0881 H   0  0  0  0  0  0  0  0  0  0  0  0
   12.5995  -22.7023    0.5021 H   0  0  0  0  0  0  0  0  0  0  0  0
    9.3549  -25.9054   -0.6662 H   0  0  0  0  0  0  0  0  0  0  0  0
    0.5553  -20.8315    0.5321 H   0  0  0  0  0  0  0  0  0  0  0  0
   11.2472  -14.1154   -1.2545 H   0  0  0  0  0  0  0  0  0  0  0  0
    7.3056  -12.8200   -2.3940 H   0  0  0  0  0  0  0  0  0  0  0  0
    9.2807  -14.2442   -2.7765 H   0  0  0  0  0  0  0  0  0  0  0  0
   11.3858  -10.9586    2.6371 H   0  0  0  0  0  0  0  0  0  0  0  0
    9.4966   -9.8225    1.1210 H   0  0  0  0  0  0  0  0  0  0  0  0
    8.7572  -11.0971    2.1589 H   0  0  0  0  0  0  0  0  0  0  0  0
   12.2992  -12.8076    1.0460 H   0  0  0  0  0  0  0  0  0  0  0  0
  1  3  1  0  0  0  0
  1  5  2  0  0  0  0
  5  6  1  0  0  0  0
  4  6  2  0  0  0  0
  2  4  1  0  0  0  0
  2  3  2  0  0  0  0
  4  9  1  0  0  0  0
  9 10  2  0  0  0  0
  8 10  1  0  0  0  0
  7  8  2  0  0  0  0
  2  7  1  0  0  0  0
  9 13  1  0  0  0  0
 13 14  2  0  0  0  0
 12 14  1  0  0  0  0
 11 12  2  0  0  0  0
 10 11  1  0  0  0  0
  6 16  1  0  0  0  0
 15 16  2  0  0  0  0
 13 15  1  0  0  0  0
  7 17  1  0  0  0  0
  3 18  1  0  0  0  0
 11 19  1  0  0  0  0
 19 20  1  0  0  0  0
 20 22  2  0  0  0  0
 20 24  1  0  0  0  0
 24 25  2  0  0  0  0
 23 25  1  0  0  0  0
 21 23  2  0  0  0  0
 21 22  1  0  0  0  0
 23 28  1  0  0  0  0
 28 29  2  0  0  0  0
 27 29  1  0  0  0  0
 26 27  2  0  0  0  0
 21 26  1  0  0  0  0
 28 30  1  0  0  0  0
 30 31  1  0  0  0  0
 31 32  1  0  0  0  0
 32 33  1  0  0  0  0
 29 33  1  0  0  0  0
 32 34  2  0  0  0  0
 27 35  1  0  0  0  0
 14 36  1  0  0  0  0
 15 37  1  0  0  0  0
 22 38  1  0  0  0  0
 26 39  1  0  0  0  0
 35 40  1  0  0  0  0
 40 42  1  0  0  0  0
 40 44  2  0  0  0  0
 44 45  1  0  0  0  0
 43 45  2  0  0  0  0
 41 43  1  0  0  0  0
 41 42  2  0  0  0  0
 41 46  1  0  0  0  0
 43 47  1  0  0  0  0
 45 48  1  0  0  0  0
 47 50  1  0  0  0  0
 47 52  2  0  0  0  0
 52 53  1  0  0  0  0
 51 53  2  0  0  0  0
 49 51  1  0  0  0  0
 49 50  2  0  0  0  0
 48 52  1  0  0  0  0
 51 54  1  0  0  0  0
 54 55  1  0  0  0  0
 55 59  2  0  0  0  0
 58 59  1  0  0  0  0
 56 58  1  0  0  0  0
 56 57  2  0  0  0  0
 55 57  1  0  0  0  0
 57 60  1  0  0  0  0
 53 61  1  0  0  0  0
 61 62  1  0  0  0  0
 62 63  1  0  0  0  0
 63 65  1  0  0  0  0
 63 67  2  0  0  0  0
 67 68  1  0  0  0  0
 66 68  2  0  0  0  0
 64 66  1  0  0  0  0
 64 65  2  0  0  0  0
 65 69  1  0  0  0  0
 44 70  1  0  0  0  0
 70 71  2  0  0  0  0
 70 72  1  0  0  0  0
 68 73  1  0  0  0  0
 64 74  1  0  0  0  0
 74 75  1  0  0  0  0
 75 76  1  0  0  0  0
 76 78  1  0  0  0  0
 76 80  2  0  0  0  0
 80 81  1  0  0  0  0
 79 81  2  0  0  0  0
 77 79  1  0  0  0  0
 77 78  2  0  0  0  0
 79 84  1  0  0  0  0
 83 84  2  0  0  0  0
 82 83  1  0  0  0  0
 77 82  1  0  0  0  0
 84 87  1  0  0  0  0
 87 88  2  0  0  0  0
 86 88  1  0  0  0  0
 85 86  2  0  0  0  0
 83 85  1  0  0  0  0
 86 89  1  0  0  0  0
 87 90  1  0  0  0  0
 78 91  1  0  0  0  0
 73 92  1  0  0  0  0
 92 94  1  0  0  0  0
 92 96  2  0  0  0  0
 96 97  1  0  0  0  0
 95 97  2  0  0  0  0
 93 95  1  0  0  0  0
 93 94  2  0  0  0  0
 93 98  1  0  0  0  0
 98 99  1  0  0  0  0
 99100  1  0  0  0  0
100102  2  0  0  0  0
100104  1  0  0  0  0
104105  2  0  0  0  0
103105  1  0  0  0  0
101103  2  0  0  0  0
101102  1  0  0  0  0
101108  1  0  0  0  0
107108  2  0  0  0  0
106107  1  0  0  0  0
102106  1  0  0  0  0
108111  1  0  0  0  0
111112  2  0  0  0  0
110112  1  0  0  0  0
109110  2  0  0  0  0
107109  1  0  0  0  0
110113  1  0  0  0  0
112114  1  0  0  0  0
114115  1  0  0  0  0
115117  1  0  0  0  0
115119  2  0  0  0  0
119120  1  0  0  0  0
118120  2  0  0  0  0
116118  1  0  0  0  0
116117  2  0  0  0  0
118121  1  0  0  0  0
121123  1  0  0  0  0
121125  2  0  0  0  0
125126  1  0  0  0  0
124126  2  0  0  0  0
122124  1  0  0  0  0
122123  2  0  0  0  0
122127  1  0  0  0  0
104128  1  0  0  0  0
105129  1  0  0  0  0
129130  1  0  0  0  0
130134  1  0  0  0  0
133134  2  0  0  0  0
131133  1  0  0  0  0
131132  1  0  0  0  0
130132  2  0  0  0  0
 97135  1  0  0  0  0
135136  1  0  0  0  0
136137  1  0  0  0  0
137138  1  0  0  0  0
 95138  1  0  0  0  0
136139  1  0  0  0  0
139140  1  0  0  0  0
140141  1  0  0  0  0
141142  1  0  0  0  0
137142  1  0  0  0  0
 31143  1  0  0  0  0
139143  1  0  0  0  0
140144  1  0  0  0  0
144145  1  0  0  0  0
145146  1  0  0  0  0
146148  2  0  0  0  0
146150  1  0  0  0  0
150151  2  0  0  0  0
149151  1  0  0  0  0
147149  2  0  0  0  0
147148  1  0  0  0  0
151154  1  0  0  0  0
154155  2  0  0  0  0
153155  1  0  0  0  0
152153  2  0  0  0  0
149152  1  0  0  0  0
154158  1  0  0  0  0
158159  2  0  0  0  0
157159  1  0  0  0  0
156157  2  0  0  0  0
155156  1  0  0  0  0
147160  1  0  0  0  0
152161  1  0  0  0  0
157164  1  0  0  0  0
164165  2  0  0  0  0
163165  1  0  0  0  0
162163  2  0  0  0  0
156162  1  0  0  0  0
163168  1  0  0  0  0
168169  2  0  0  0  0
167169  1  0  0  0  0
166167  2  0  0  0  0
162166  1  0  0  0  0
167170  1  0  0  0  0
170171  1  0  0  0  0
171172  1  0  0  0  0
172173  1  0  0  0  0
173175  1  0  0  0  0
173177  2  0  0  0  0
177178  1  0  0  0  0
176178  2  0  0  0  0
174176  1  0  0  0  0
174175  2  0  0  0  0
174181  1  0  0  0  0
181182  2  0  0  0  0
180182  1  0  0  0  0
179180  2  0  0  0  0
175179  1  0  0  0  0
177183  1  0  0  0  0
178184  1  0  0  0  0
176186  1  0  0  0  0
186187  2  0  0  0  0
185187  1  0  0  0  0
181185  1  0  0  0  0
185190  2  0  0  0  0
189190  1  0  0  0  0
188189  1  0  0  0  0
182188  1  0  0  0  0
189193  2  0  0  0  0
193194  1  0  0  0  0
192194  2  0  0  0  0
191192  1  0  0  0  0
188191  2  0  0  0  0
194195  1  0  0  0  0
195196  1  0  0  0  0
196197  1  0  0  0  0
197198  1  0  0  0  0
192198  1  0  0  0  0
195199  1  0  0  0  0
199200  1  0  0  0  0
200201  1  0  0  0  0
201202  1  0  0  0  0
196202  1  0  0  0  0
200203  1  0  0  0  0
186204  1  0  0  0  0
160205  1  0  0  0  0
205207  1  0  0  0  0
205209  2  0  0  0  0
209210  1  0  0  0  0
208210  2  0  0  0  0
206208  1  0  0  0  0
206207  2  0  0  0  0
206213  1  0  0  0  0
211213  2  0  0  0  0
211212  1  0  0  0  0
207212  1  0  0  0  0
  1214  1  0  0  0  0
  5215  1  0  0  0  0
  8216  1  0  0  0  0
 12217  1  0  0  0  0
 16218  1  0  0  0  0
 17219  1  0  0  0  0
 18220  1  0  0  0  0
 19221  1  0  0  0  0
 19222  1  0  0  0  0
 24223  1  0  0  0  0
 25224  1  0  0  0  0
 30225  1  0  0  0  0
 30226  1  0  0  0  0
 31227  1  0  0  0  0
 33228  1  0  0  0  0
 33229  1  0  0  0  0
 36230  1  0  0  0  0
 36231  1  0  0  0  0
 37232  1  0  0  0  0
 38233  1  0  0  0  0
 39234  1  0  0  0  0
 39235  1  0  0  0  0
 39236  1  0  0  0  0
 42237  1  0  0  0  0
 46238  1  0  0  0  0
 49239  1  0  0  0  0
 50240  1  0  0  0  0
 56241  1  0  0  0  0
 58242  1  0  0  0  0
 58243  1  0  0  0  0
 59244  1  0  0  0  0
 60245  1  0  0  0  0
 60246  1  0  0  0  0
 60247  1  0  0  0  0
 61248  1  0  0  0  0
 61249  1  0  0  0  0
 62250  1  0  0  0  0
 62251  1  0  0  0  0
 67252  1  0  0  0  0
 69253  1  0  0  0  0
 69254  1  0  0  0  0
 69255  1  0  0  0  0
 72256  1  0  0  0  0
 75257  1  0  0  0  0
 75258  1  0  0  0  0
 80259  1  0  0  0  0
 81260  1  0  0  0  0
 82261  1  0  0  0  0
 85262  1  0  0  0  0
 88263  1  0  0  0  0
 89264  1  0  0  0  0
 90265  1  0  0  0  0
 90266  1  0  0  0  0
 90267  1  0  0  0  0
 91268  1  0  0  0  0
 94269  1  0  0  0  0
 96270  1  0  0  0  0
 99271  1  0  0  0  0
 99272  1  0  0  0  0
103273  1  0  0  0  0
109274  1  0  0  0  0
111275  1  0  0  0  0
113276  1  0  0  0  0
116277  1  0  0  0  0
117278  1  0  0  0  0
119279  1  0  0  0  0
120280  1  0  0  0  0
123281  1  0  0  0  0
124282  1  0  0  0  0
125283  1  0  0  0  0
126284  1  0  0  0  0
127285  1  0  0  0  0
128286  1  0  0  0  0
129287  1  0  0  0  0
129288  1  0  0  0  0
131289  1  0  0  0  0
131290  1  0  0  0  0
132291  1  0  0  0  0
133292  1  0  0  0  0
134293  1  0  0  0  0
135294  1  0  0  0  0
135295  1  0  0  0  0
136296  1  0  0  0  0
137297  1  0  0  0  0
138298  1  0  0  0  0
138299  1  0  0  0  0
139300  1  0  0  0  0
140301  1  0  0  0  0
141302  1  0  0  0  0
141303  1  0  0  0  0
142304  1  0  0  0  0
142305  1  0  0  0  0
143306  1  0  0  0  0
143307  1  0  0  0  0
144308  1  0  0  0  0
144309  1  0  0  0  0
145310  1  0  0  0  0
145311  1  0  0  0  0
148312  1  0  0  0  0
150313  1  0  0  0  0
153314  1  0  0  0  0
158315  1  0  0  0  0
159316  1  0  0  0  0
161317  1  0  0  0  0
161318  1  0  0  0  0
161319  1  0  0  0  0
164320  1  0  0  0  0
165321  1  0  0  0  0
166322  1  0  0  0  0
168323  1  0  0  0  0
169324  1  0  0  0  0
170325  1  0  0  0  0
170326  1  0  0  0  0
171327  1  0  0  0  0
171328  1  0  0  0  0
172329  1  0  0  0  0
172330  1  0  0  0  0
179331  1  0  0  0  0
180332  1  0  0  0  0
183333  1  0  0  0  0
183334  1  0  0  0  0
183335  1  0  0  0  0
184336  1  0  0  0  0
184337  1  0  0  0  0
184338  1  0  0  0  0
187339  1  0  0  0  0
190340  1  0  0  0  0
191341  1  0  0  0  0
193342  1  0  0  0  0
195343  1  0  0  0  0
196344  1  0  0  0  0
197345  1  0  0  0  0
197346  1  0  0  0  0
198347  1  0  0  0  0
198348  1  0  0  0  0
199349  1  0  0  0  0
199350  1  0  0  0  0
200351  1  0  0  0  0
201352  1  0  0  0  0
201353  1  0  0  0  0
202354  1  0  0  0  0
202355  1  0  0  0  0
203356  1  0  0  0  0
204357  1  0  0  0  0
208358  1  0  0  0  0
209359  1  0  0  0  0
210360  1  0  0  0  0
211361  1  0  0  0  0
212362  1  0  0  0  0
212363  1  0  0  0  0
213364  1  0  0  0  0
M  END
> <fileName>
/home/nikant/Desktop/che622/Project/try2/wiser_with_H.mol

$$$$
