
  -INDIGO-10312500362D

  0  0  0  0  0  0  0  0  0  0  0 V3000
M  V30 BEGIN CTAB
M  V30 COUNTS 213 251 0 0 0
M  V30 BEGIN ATOM
M  V30 1 C 3.71209 -3.25204 0.0 0
M  V30 2 C 5.44344 -3.25155 0.0 0
M  V30 3 C 4.5794 -2.75163 0.0 0
M  V30 4 C 5.44344 -4.2531 0.0 0
M  V30 5 C 3.71209 -4.25759 0.0 0
M  V30 6 C 4.58159 -4.7529 0.0 0
M  V30 7 C 6.30846 -2.75288 0.0 0
M  V30 8 C 7.17617 -3.25351 0.0 0
M  V30 9 C 6.31462 -4.75574 0.0 0
M  V30 10 C 7.17837 -4.25003 0.0 0
M  V30 11 C 8.04521 -4.74424 0.0 0
M  V30 12 C 8.05159 -5.74535 0.0 0
M  V30 13 C 6.32102 -5.76086 0.0 0
M  V30 14 C 7.19329 -6.25042 0.0 0
M  V30 15 C 5.4561 -6.26684 0.0 0
M  V30 16 C 4.5821 -5.76997 0.0 0
M  V30 17 S 6.30864 -1.75227 0.0 0
M  V30 18 O 4.58001 -1.72325 0.0 0
M  V30 19 C 8.9088 -4.23883 0.0 0
M  V30 20 C 9.77828 -4.73401 0.0 0
M  V30 21 C 11.5096 -4.73236 0.0 0
M  V30 22 C 10.6453 -4.23302 0.0 0
M  V30 23 C 11.5103 -5.73391 0.0 0
M  V30 24 C 9.77896 -5.73956 0.0 0
M  V30 25 C 10.6488 -6.23429 0.0 0
M  V30 26 C 12.3743 -4.2331 0.0 0
M  V30 27 C 13.2424 -4.73316 0.0 0
M  V30 28 C 12.3818 -6.23596 0.0 0
M  V30 29 C 13.2452 -5.72967 0.0 0
M  V30 30 C 12.3886 -7.23687 0.0 0
M  V30 31 C 13.2587 -7.73148 0.0 0
M  V30 32 C 14.1221 -7.22519 0.0 0
M  V30 33 C 14.1154 -6.22428 0.0 0
M  V30 34 O 14.992 -7.69186 0.0 0
M  V30 35 O 14.1079 -4.20342 0.0 0
M  V30 36 N 7.20352 -7.25098 0.0 0
M  V30 37 O 5.4623 -7.23965 0.0 0
M  V30 38 O 10.6452 -3.20463 0.0 0
M  V30 39 C 12.3738 -3.2325 0.0 0
M  V30 40 C 15.1085 -4.23119 0.0 0
M  V30 41 C 15.9728 -2.73098 0.0 0
M  V30 42 C 15.1082 -3.22987 0.0 0
M  V30 43 C 16.8405 -3.23117 0.0 0
M  V30 44 C 15.9797 -4.73339 0.0 0
M  V30 45 C 16.8431 -4.22746 0.0 0
M  V30 46 O 15.9726 -1.7026 0.0 0
M  V30 47 C 18.1671 -3.20227 0.0 0
M  V30 48 S 17.5353 -4.81212 0.0 0
M  V30 49 C 19.8985 -3.20063 0.0 0
M  V30 50 C 19.0341 -2.70128 0.0 0
M  V30 51 C 19.8992 -4.20218 0.0 0
M  V30 52 C 18.1678 -4.20783 0.0 0
M  V30 53 C 19.0377 -4.70256 0.0 0
M  V30 54 O 20.8998 -4.1744 0.0 0
M  V30 55 C 21.9004 -4.20218 0.0 0
M  V30 56 C 23.1045 -5.28637 0.0 0
M  V30 57 C 22.8991 -4.3117 0.0 0
M  V30 58 C 22.2373 -5.78708 0.0 0
M  V30 59 C 21.4958 -5.1219 0.0 0
M  V30 60 C 23.5709 -3.57019 0.0 0
M  V30 61 C 19.0422 -5.70315 0.0 0
M  V30 62 C 19.0422 -6.70376 0.0 0
M  V30 63 C 19.0422 -7.70436 0.0 0
M  V30 64 C 19.9093 -9.20293 0.0 0
M  V30 65 C 19.9095 -8.20469 0.0 0
M  V30 66 N 19.0422 -9.70428 0.0 0
M  V30 67 C 18.1717 -8.20772 0.0 0
M  V30 68 C 18.1782 -9.20838 0.0 0
M  V30 69 C 20.7761 -7.70433 0.0 0
M  V30 70 C 15.9833 -5.73398 0.0 0
M  V30 71 O 16.9839 -5.70621 0.0 0
M  V30 72 O 15.9833 -6.70681 0.0 0
M  V30 73 O 17.3139 -9.68482 0.0 0
M  V30 74 O 20.7759 -9.67527 0.0 0
M  V30 75 C 21.6425 -10.2034 0.0 0
M  V30 76 C 22.509 -10.7037 0.0 0
M  V30 77 C 24.2404 -10.702 0.0 0
M  V30 78 C 23.376 -10.2027 0.0 0
M  V30 79 C 24.241 -11.7036 0.0 0
M  V30 80 C 22.5097 -11.7092 0.0 0
M  V30 81 C 23.3795 -12.2039 0.0 0
M  V30 82 N 25.1927 -10.3919 0.0 0
M  V30 83 C 25.782 -11.2018 0.0 0
M  V30 84 C 25.1938 -12.0125 0.0 0
M  V30 85 C 26.775 -11.3062 0.0 0
M  V30 86 C 27.1833 -12.221 0.0 0
M  V30 87 C 25.6038 -12.9309 0.0 0
M  V30 88 C 26.5999 -13.0288 0.0 0
M  V30 89 O 28.1786 -12.2959 0.0 0
M  V30 90 C 25.0187 -13.7427 0.0 0
M  V30 91 O 23.3759 -9.17428 0.0 0
M  V30 92 C 16.3474 -9.45362 0.0 0
M  V30 93 C 15.4831 -10.9538 0.0 0
M  V30 94 C 16.3477 -10.4549 0.0 0
M  V30 95 C 14.6154 -10.4536 0.0 0
M  V30 96 C 15.4762 -8.95143 0.0 0
M  V30 97 C 14.6128 -9.45736 0.0 0
M  V30 98 O 15.4833 -11.9267 0.0 0
M  V30 99 C 16.4839 -11.9544 0.0 0
M  V30 100 C 16.4839 -12.955 0.0 0
M  V30 101 C 17.351 -14.4536 0.0 0
M  V30 102 C 17.3513 -13.4554 0.0 0
M  V30 103 C 16.484 -14.955 0.0 0
M  V30 104 C 15.6134 -13.4584 0.0 0
M  V30 105 C 15.6199 -14.4591 0.0 0
M  V30 106 O 18.3008 -13.1194 0.0 0
M  V30 107 C 18.8873 -13.955 0.0 0
M  V30 108 C 18.3004 -14.7624 0.0 0
M  V30 109 C 19.877 -14.0599 0.0 0
M  V30 110 C 20.2831 -14.9721 0.0 0
M  V30 111 C 18.7081 -15.6782 0.0 0
M  V30 112 C 19.7008 -15.7767 0.0 0
M  V30 113 O 21.2783 -15.0757 0.0 0
M  V30 114 O 20.1113 -16.6892 0.0 0
M  V30 115 C 20.6116 -17.5558 0.0 0
M  V30 116 C 22.343 -17.5541 0.0 0
M  V30 117 C 21.4786 -17.0548 0.0 0
M  V30 118 C 22.3437 -18.5557 0.0 0
M  V30 119 C 20.6123 -18.5613 0.0 0
M  V30 120 C 21.4821 -19.0561 0.0 0
M  V30 121 C 23.211 -19.0546 0.0 0
M  V30 122 C 24.9424 -19.0529 0.0 0
M  V30 123 C 24.078 -18.5536 0.0 0
M  V30 124 C 24.943 -20.0545 0.0 0
M  V30 125 C 23.2117 -20.0601 0.0 0
M  V30 126 C 24.0815 -20.5549 0.0 0
M  V30 127 O 25.8088 -18.5524 0.0 0
M  V30 128 O 14.7451 -12.9334 0.0 0
M  V30 129 C 14.7556 -14.9633 0.0 0
M  V30 130 C 13.8891 -15.4636 0.0 0
M  V30 131 C 13.1535 -16.9073 0.0 0
M  V30 132 C 14.0418 -16.4566 0.0 0
M  V30 133 C 12.4454 -16.1992 0.0 0
M  V30 134 C 12.896 -15.3109 0.0 0
M  V30 135 C 13.7487 -8.96144 0.0 0
M  V30 136 C 12.8872 -9.46179 0.0 0
M  V30 137 C 12.8898 -10.4581 0.0 0
M  V30 138 C 13.7539 -10.954 0.0 0
M  V30 139 C 12.0231 -8.96587 0.0 0
M  V30 140 C 11.1616 -9.46623 0.0 0
M  V30 141 C 11.1641 -10.4625 0.0 0
M  V30 142 C 12.0282 -10.9584 0.0 0
M  V30 143 C 11.9968 -8.30324 0.0 0
M  V30 144 C 10.2937 -8.96816 0.0 0
M  V30 145 C 9.29311 -8.96816 0.0 0
M  V30 146 C 8.42656 -9.46847 0.0 0
M  V30 147 C 7.56231 -10.9687 0.0 0
M  V30 148 C 8.42694 -10.4698 0.0 0
M  V30 149 C 6.69461 -10.4685 0.0 0
M  V30 150 C 7.55539 -8.96627 0.0 0
M  V30 151 C 6.69203 -9.4722 0.0 0
M  V30 152 C 5.83542 -10.9668 0.0 0
M  V30 153 C 4.97098 -10.471 0.0 0
M  V30 154 C 5.82413 -8.97445 0.0 0
M  V30 155 C 4.96622 -9.47974 0.0 0
M  V30 156 C 4.10266 -8.99036 0.0 0
M  V30 157 C 4.09373 -7.99453 0.0 0
M  V30 158 C 5.81517 -7.97463 0.0 0
M  V30 159 C 4.94621 -7.48989 0.0 0
M  V30 160 S 7.56252 -11.9693 0.0 0
M  V30 161 C 5.83784 -11.9674 0.0 0
M  V30 162 C 3.24701 -9.49391 0.0 0
M  V30 163 C 2.37979 -9.00385 0.0 0
M  V30 164 C 3.22304 -7.50252 0.0 0
M  V30 165 C 2.36872 -8.01304 0.0 0
M  V30 166 C 3.25556 -10.4869 0.0 0
M  V30 167 C 2.3975 -10.9933 0.0 0
M  V30 168 C 1.5183 -9.51225 0.0 0
M  V30 169 C 1.53356 -10.5076 0.0 0
M  V30 170 C 2.40801 -11.9938 0.0 0
M  V30 171 C 2.40801 -12.9944 0.0 0
M  V30 172 C 2.40801 -13.995 0.0 0
M  V30 173 C 2.40801 -14.9956 0.0 0
M  V30 174 C 3.27511 -16.4942 0.0 0
M  V30 175 C 3.27537 -15.496 0.0 0
M  V30 176 C 2.40808 -16.9956 0.0 0
M  V30 177 C 1.53751 -15.499 0.0 0
M  V30 178 C 1.54398 -16.4997 0.0 0
M  V30 179 C 4.13766 -14.9992 0.0 0
M  V30 180 C 5.00237 -15.4984 0.0 0
M  V30 181 C 4.14328 -16.9954 0.0 0
M  V30 182 C 5.00431 -16.4916 0.0 0
M  V30 183 C 0.669183 -15.0018 0.0 0
M  V30 184 C 0.679703 -17.0039 0.0 0
M  V30 185 C 4.14078 -17.9952 0.0 0
M  V30 186 C 2.40904 -18.0014 0.0 0
M  V30 187 C 3.27921 -18.4959 0.0 0
M  V30 188 C 5.86816 -16.9844 0.0 0
M  V30 189 C 5.87425 -17.9822 0.0 0
M  V30 190 C 5.01866 -18.4854 0.0 0
M  V30 191 C 6.72692 -16.4823 0.0 0
M  V30 192 C 7.59443 -16.9758 0.0 0
M  V30 193 C 6.74524 -18.4777 0.0 0
M  V30 194 C 7.60269 -17.9686 0.0 0
M  V30 195 C 8.46661 -18.4579 0.0 0
M  V30 196 C 9.32226 -17.9543 0.0 0
M  V30 197 C 9.314 -16.9616 0.0 0
M  V30 198 C 8.45009 -16.4723 0.0 0
M  V30 199 C 8.47483 -19.4507 0.0 0
M  V30 200 C 9.33871 -19.9399 0.0 0
M  V30 201 C 10.1944 -19.4364 0.0 0
M  V30 202 C 10.1861 -18.4436 0.0 0
M  V30 203 O 9.34699 -20.9127 0.0 0
M  V30 204 O 1.54443 -18.4772 0.0 0
M  V30 205 C 7.56252 -12.9699 0.0 0
M  V30 206 C 8.42962 -14.4685 0.0 0
M  V30 207 C 8.42988 -13.4702 0.0 0
M  V30 208 C 7.56259 -14.9698 0.0 0
M  V30 209 C 6.69202 -13.4732 0.0 0
M  V30 210 C 6.69849 -14.4739 0.0 0
M  V30 211 C 9.95851 -13.9749 0.0 0
M  V30 212 C 9.382 -13.1706 0.0 0
M  V30 213 C 9.36993 -14.777 0.0 0
M  V30 END ATOM
M  V30 BEGIN BOND
M  V30 1 1 3 1
M  V30 2 2 1 5
M  V30 3 1 5 6
M  V30 4 2 6 4
M  V30 5 1 4 2
M  V30 6 2 2 3
M  V30 7 1 4 9
M  V30 8 2 9 10
M  V30 9 1 10 8
M  V30 10 2 8 7
M  V30 11 1 7 2
M  V30 12 1 9 13
M  V30 13 2 13 14
M  V30 14 1 14 12
M  V30 15 2 12 11
M  V30 16 1 11 10
M  V30 17 1 6 16
M  V30 18 2 16 15
M  V30 19 1 15 13
M  V30 20 1 7 17
M  V30 21 1 3 18
M  V30 22 1 11 19
M  V30 23 1 19 20
M  V30 24 2 22 20
M  V30 25 1 20 24
M  V30 26 2 24 25
M  V30 27 1 25 23
M  V30 28 2 23 21
M  V30 29 1 21 22
M  V30 30 1 23 28
M  V30 31 2 28 29
M  V30 32 1 29 27
M  V30 33 2 27 26
M  V30 34 1 26 21
M  V30 35 1 28 30
M  V30 36 1 30 31
M  V30 37 1 31 32
M  V30 38 1 32 33
M  V30 39 1 33 29
M  V30 40 2 32 34
M  V30 41 1 27 35
M  V30 42 1 14 36
M  V30 43 1 15 37
M  V30 44 1 22 38
M  V30 45 1 26 39
M  V30 46 1 35 40
M  V30 47 1 42 40
M  V30 48 2 40 44
M  V30 49 1 44 45
M  V30 50 2 45 43
M  V30 51 1 43 41
M  V30 52 2 41 42
M  V30 53 1 41 46
M  V30 54 1 43 47
M  V30 55 1 45 48
M  V30 56 1 50 47
M  V30 57 2 47 52
M  V30 58 1 52 53
M  V30 59 2 53 51
M  V30 60 1 51 49
M  V30 61 2 49 50
M  V30 62 1 52 48
M  V30 63 1 51 54
M  V30 64 1 54 55
M  V30 65 2 55 59
M  V30 66 1 59 58
M  V30 67 1 58 56
M  V30 68 2 56 57
M  V30 69 1 57 55
M  V30 70 1 57 60
M  V30 71 1 53 61
M  V30 72 1 61 62
M  V30 73 1 62 63
M  V30 74 1 65 63
M  V30 75 2 63 67
M  V30 76 1 67 68
M  V30 77 2 68 66
M  V30 78 1 66 64
M  V30 79 2 64 65
M  V30 80 1 65 69
M  V30 81 1 44 70
M  V30 82 2 70 71
M  V30 83 1 70 72
M  V30 84 1 68 73
M  V30 85 1 64 74
M  V30 86 1 74 75
M  V30 87 1 75 76
M  V30 88 1 78 76
M  V30 89 2 76 80
M  V30 90 1 80 81
M  V30 91 2 81 79
M  V30 92 1 79 77
M  V30 93 2 77 78
M  V30 94 1 79 84
M  V30 95 2 84 83
M  V30 96 1 83 82
M  V30 97 1 82 77
M  V30 98 1 84 87
M  V30 99 2 87 88
M  V30 100 1 88 86
M  V30 101 2 86 85
M  V30 102 1 85 83
M  V30 103 1 86 89
M  V30 104 1 87 90
M  V30 105 1 78 91
M  V30 106 1 73 92
M  V30 107 1 94 92
M  V30 108 2 92 96
M  V30 109 1 96 97
M  V30 110 2 97 95
M  V30 111 1 95 93
M  V30 112 2 93 94
M  V30 113 1 93 98
M  V30 114 1 98 99
M  V30 115 1 99 100
M  V30 116 2 102 100
M  V30 117 1 100 104
M  V30 118 2 104 105
M  V30 119 1 105 103
M  V30 120 2 103 101
M  V30 121 1 101 102
M  V30 122 1 101 108
M  V30 123 2 108 107
M  V30 124 1 107 106
M  V30 125 1 106 102
M  V30 126 1 108 111
M  V30 127 2 111 112
M  V30 128 1 112 110
M  V30 129 2 110 109
M  V30 130 1 109 107
M  V30 131 1 110 113
M  V30 132 1 112 114
M  V30 133 1 114 115
M  V30 134 1 117 115
M  V30 135 2 115 119
M  V30 136 1 119 120
M  V30 137 2 120 118
M  V30 138 1 118 116
M  V30 139 2 116 117
M  V30 140 1 118 121
M  V30 141 1 123 121
M  V30 142 2 121 125
M  V30 143 1 125 126
M  V30 144 2 126 124
M  V30 145 1 124 122
M  V30 146 2 122 123
M  V30 147 1 122 127
M  V30 148 1 104 128
M  V30 149 1 105 129
M  V30 150 1 129 130
M  V30 151 1 130 134
M  V30 152 2 134 133
M  V30 153 1 133 131
M  V30 154 1 131 132
M  V30 155 2 132 130
M  V30 156 1 97 135
M  V30 157 1 135 136
M  V30 158 1 136 137
M  V30 159 1 137 138
M  V30 160 1 138 95
M  V30 161 1 136 139
M  V30 162 1 139 140
M  V30 163 1 140 141
M  V30 164 1 141 142
M  V30 165 1 142 137
M  V30 166 1 31 143
M  V30 167 1 143 139
M  V30 168 1 140 144
M  V30 169 1 144 145
M  V30 170 1 145 146
M  V30 171 2 148 146
M  V30 172 1 146 150
M  V30 173 2 150 151
M  V30 174 1 151 149
M  V30 175 2 149 147
M  V30 176 1 147 148
M  V30 177 1 151 154
M  V30 178 2 154 155
M  V30 179 1 155 153
M  V30 180 2 153 152
M  V30 181 1 152 149
M  V30 182 1 154 158
M  V30 183 2 158 159
M  V30 184 1 159 157
M  V30 185 2 157 156
M  V30 186 1 156 155
M  V30 187 1 147 160
M  V30 188 1 152 161
M  V30 189 1 157 164
M  V30 190 2 164 165
M  V30 191 1 165 163
M  V30 192 2 163 162
M  V30 193 1 162 156
M  V30 194 1 163 168
M  V30 195 2 168 169
M  V30 196 1 169 167
M  V30 197 2 167 166
M  V30 198 1 166 162
M  V30 199 1 167 170
M  V30 200 1 170 171
M  V30 201 1 171 172
M  V30 202 1 172 173
M  V30 203 1 175 173
M  V30 204 2 173 177
M  V30 205 1 177 178
M  V30 206 2 178 176
M  V30 207 1 176 174
M  V30 208 2 174 175
M  V30 209 1 174 181
M  V30 210 2 181 182
M  V30 211 1 182 180
M  V30 212 2 180 179
M  V30 213 1 179 175
M  V30 214 1 177 183
M  V30 215 1 178 184
M  V30 216 1 176 186
M  V30 217 2 186 187
M  V30 218 1 187 185
M  V30 219 1 185 181
M  V30 220 2 185 190
M  V30 221 1 190 189
M  V30 222 1 189 188
M  V30 223 1 188 182
M  V30 224 2 189 193
M  V30 225 1 193 194
M  V30 226 2 194 192
M  V30 227 1 192 191
M  V30 228 2 191 188
M  V30 229 1 194 195
M  V30 230 1 195 196
M  V30 231 1 196 197
M  V30 232 1 197 198
M  V30 233 1 198 192
M  V30 234 1 195 199
M  V30 235 1 199 200
M  V30 236 1 200 201
M  V30 237 1 201 202
M  V30 238 1 202 196
M  V30 239 1 200 203
M  V30 240 1 186 204
M  V30 241 1 160 205
M  V30 242 1 207 205
M  V30 243 2 205 209
M  V30 244 1 209 210
M  V30 245 2 210 208
M  V30 246 1 208 206
M  V30 247 2 206 207
M  V30 248 1 206 213
M  V30 249 2 213 211
M  V30 250 1 211 212
M  V30 251 1 212 207
M  V30 END BOND
M  V30 END CTAB
M  END
$$$$
