
  -INDIGO-10312500462D

  0  0  0  0  0  0  0  0  0  0  0 V3000
M  V30 BEGIN CTAB
M  V30 COUNTS 364 402 0 0 0
M  V30 BEGIN ATOM
M  V30 1 C 3.71475 -3.25437 0.0 0
M  V30 2 C 5.44734 -3.25388 0.0 0
M  V30 3 C 4.58268 -2.7536 0.0 0
M  V30 4 C 5.44734 -4.25615 0.0 0
M  V30 5 C 3.71475 -4.26064 0.0 0
M  V30 6 C 4.58487 -4.75631 0.0 0
M  V30 7 C 6.31298 -2.75485 0.0 0
M  V30 8 C 7.18131 -3.25585 0.0 0
M  V30 9 C 6.31914 -4.75915 0.0 0
M  V30 10 C 7.18351 -4.25307 0.0 0
M  V30 11 C 8.05098 -4.74763 0.0 0
M  V30 12 C 8.05736 -5.74947 0.0 0
M  V30 13 C 6.32555 -5.76499 0.0 0
M  V30 14 C 7.19845 -6.2549 0.0 0
M  V30 15 C 5.46001 -6.27133 0.0 0
M  V30 16 C 4.58538 -5.7741 0.0 0
M  V30 17 S 6.31316 -1.75353 0.0 0
M  V30 18 O 4.58329 -1.72448 0.0 0
M  V30 19 C 8.91518 -4.24186 0.0 0
M  V30 20 C 9.78529 -4.7374 0.0 0
M  V30 21 C 11.5179 -4.73575 0.0 0
M  V30 22 C 10.6529 -4.23605 0.0 0
M  V30 23 C 11.5185 -5.73802 0.0 0
M  V30 24 C 9.78596 -5.74367 0.0 0
M  V30 25 C 10.6564 -6.23876 0.0 0
M  V30 26 C 12.3832 -4.23614 0.0 0
M  V30 27 C 13.2518 -4.73655 0.0 0
M  V30 28 C 12.3907 -6.24043 0.0 0
M  V30 29 C 13.2547 -5.73378 0.0 0
M  V30 30 C 12.3974 -7.24205 0.0 0
M  V30 31 C 13.2682 -7.73702 0.0 0
M  V30 32 C 14.1322 -7.23037 0.0 0
M  V30 33 C 14.1255 -6.22874 0.0 0
M  V30 34 O 15.0028 -7.69737 0.0 0
M  V30 35 O 14.118 -4.20643 0.0 0
M  V30 36 N 7.20868 -7.25617 0.0 0
M  V30 37 O 5.46621 -7.24484 0.0 0
M  V30 38 O 10.6528 -3.20693 0.0 0
M  V30 39 C 12.3827 -3.23481 0.0 0
M  V30 40 C 15.1194 -4.23423 0.0 0
M  V30 41 C 15.9842 -2.73294 0.0 0
M  V30 42 C 15.119 -3.23219 0.0 0
M  V30 43 C 16.8526 -3.23349 0.0 0
M  V30 44 C 15.9912 -4.73678 0.0 0
M  V30 45 C 16.8551 -4.23049 0.0 0
M  V30 46 O 15.984 -1.70382 0.0 0
M  V30 47 C 18.1802 -3.20457 0.0 0
M  V30 48 S 17.5479 -4.81557 0.0 0
M  V30 49 C 19.9127 -3.20292 0.0 0
M  V30 50 C 19.0478 -2.70322 0.0 0
M  V30 51 C 19.9134 -4.20519 0.0 0
M  V30 52 C 18.1808 -4.21084 0.0 0
M  V30 53 C 19.0513 -4.70593 0.0 0
M  V30 54 O 20.9147 -4.17739 0.0 0
M  V30 55 C 21.9161 -4.20519 0.0 0
M  V30 56 C 23.1211 -5.29016 0.0 0
M  V30 57 C 22.9155 -4.31479 0.0 0
M  V30 58 C 22.2532 -5.79122 0.0 0
M  V30 59 C 21.5112 -5.12557 0.0 0
M  V30 60 C 23.5878 -3.57275 0.0 0
M  V30 61 C 19.0558 -5.70724 0.0 0
M  V30 62 C 19.0558 -6.70856 0.0 0
M  V30 63 C 19.0558 -7.70988 0.0 0
M  V30 64 C 19.9235 -9.20952 0.0 0
M  V30 65 C 19.9238 -8.21057 0.0 0
M  V30 66 N 19.0559 -9.71124 0.0 0
M  V30 67 C 18.1847 -8.2136 0.0 0
M  V30 68 C 18.1912 -9.21498 0.0 0
M  V30 69 C 20.7909 -7.70985 0.0 0
M  V30 70 C 15.9947 -5.73809 0.0 0
M  V30 71 O 16.9961 -5.7103 0.0 0
M  V30 72 O 15.9947 -6.71162 0.0 0
M  V30 73 O 17.3263 -9.69176 0.0 0
M  V30 74 O 20.7908 -9.68221 0.0 0
M  V30 75 C 21.658 -10.2107 0.0 0
M  V30 76 C 22.5252 -10.7113 0.0 0
M  V30 77 C 24.2577 -10.7097 0.0 0
M  V30 78 C 23.3928 -10.21 0.0 0
M  V30 79 C 24.2584 -11.7119 0.0 0
M  V30 80 C 22.5258 -11.7176 0.0 0
M  V30 81 C 23.3963 -12.2127 0.0 0
M  V30 82 N 25.2108 -10.3994 0.0 0
M  V30 83 C 25.8004 -11.2098 0.0 0
M  V30 84 C 25.2119 -12.0211 0.0 0
M  V30 85 C 26.7942 -11.3143 0.0 0
M  V30 86 C 27.2028 -12.2297 0.0 0
M  V30 87 C 25.6221 -12.9402 0.0 0
M  V30 88 C 26.6189 -13.0382 0.0 0
M  V30 89 O 28.1988 -12.3047 0.0 0
M  V30 90 C 25.0366 -13.7525 0.0 0
M  V30 91 O 23.3927 -9.18085 0.0 0
M  V30 92 C 16.3591 -9.4604 0.0 0
M  V30 93 C 15.4942 -10.9617 0.0 0
M  V30 94 C 16.3595 -10.4624 0.0 0
M  V30 95 C 14.6259 -10.4611 0.0 0
M  V30 96 C 15.4873 -8.95784 0.0 0
M  V30 97 C 14.6233 -9.46414 0.0 0
M  V30 98 O 15.4944 -11.9352 0.0 0
M  V30 99 C 16.4957 -11.963 0.0 0
M  V30 100 C 16.4957 -12.9643 0.0 0
M  V30 101 C 17.3635 -14.464 0.0 0
M  V30 102 C 17.3637 -13.465 0.0 0
M  V30 103 C 16.4958 -14.9657 0.0 0
M  V30 104 C 15.6246 -13.468 0.0 0
M  V30 105 C 15.6311 -14.4694 0.0 0
M  V30 106 O 18.3139 -13.1288 0.0 0
M  V30 107 C 18.9009 -13.965 0.0 0
M  V30 108 C 18.3135 -14.773 0.0 0
M  V30 109 C 19.8912 -14.07 0.0 0
M  V30 110 C 20.2976 -14.9828 0.0 0
M  V30 111 C 18.7215 -15.6894 0.0 0
M  V30 112 C 19.7149 -15.788 0.0 0
M  V30 113 O 21.2935 -15.0865 0.0 0
M  V30 114 O 20.1257 -16.7012 0.0 0
M  V30 115 C 20.6264 -17.5684 0.0 0
M  V30 116 C 22.359 -17.5667 0.0 0
M  V30 117 C 21.494 -17.067 0.0 0
M  V30 118 C 22.3597 -18.569 0.0 0
M  V30 119 C 20.6271 -18.5746 0.0 0
M  V30 120 C 21.4975 -19.0697 0.0 0
M  V30 121 C 23.2276 -19.0682 0.0 0
M  V30 122 C 24.9602 -19.0666 0.0 0
M  V30 123 C 24.0952 -18.5669 0.0 0
M  V30 124 C 24.9609 -20.0688 0.0 0
M  V30 125 C 23.2283 -20.0745 0.0 0
M  V30 126 C 24.0988 -20.5696 0.0 0
M  V30 127 O 25.8273 -18.5657 0.0 0
M  V30 128 O 14.7557 -12.9427 0.0 0
M  V30 129 C 14.7662 -14.974 0.0 0
M  V30 130 C 13.899 -15.4747 0.0 0
M  V30 131 C 13.1629 -16.9194 0.0 0
M  V30 132 C 14.0518 -16.4684 0.0 0
M  V30 133 C 12.4543 -16.2109 0.0 0
M  V30 134 C 12.9052 -15.3218 0.0 0
M  V30 135 C 13.7586 -8.96786 0.0 0
M  V30 136 C 12.8964 -9.46857 0.0 0
M  V30 137 C 12.899 -10.4656 0.0 0
M  V30 138 C 13.7637 -10.9619 0.0 0
M  V30 139 C 12.0317 -8.97229 0.0 0
M  V30 140 C 11.1695 -9.47301 0.0 0
M  V30 141 C 11.1721 -10.47 0.0 0
M  V30 142 C 12.0369 -10.9663 0.0 0
M  V30 143 C 12.0054 -8.30918 0.0 0
M  V30 144 C 10.3011 -8.97459 0.0 0
M  V30 145 C 9.29977 -8.97459 0.0 0
M  V30 146 C 8.4326 -9.47525 0.0 0
M  V30 147 C 7.56773 -10.9765 0.0 0
M  V30 148 C 8.43298 -10.4773 0.0 0
M  V30 149 C 6.69941 -10.476 0.0 0
M  V30 150 C 7.5608 -8.9727 0.0 0
M  V30 151 C 6.69682 -9.47899 0.0 0
M  V30 152 C 5.83961 -10.9746 0.0 0
M  V30 153 C 4.97455 -10.4785 0.0 0
M  V30 154 C 5.8283 -8.98088 0.0 0
M  V30 155 C 4.96978 -9.48653 0.0 0
M  V30 156 C 4.10559 -8.9968 0.0 0
M  V30 157 C 4.09666 -8.00025 0.0 0
M  V30 158 C 5.81933 -7.98035 0.0 0
M  V30 159 C 4.94976 -7.49526 0.0 0
M  V30 160 S 7.56793 -11.9779 0.0 0
M  V30 161 C 5.84203 -11.976 0.0 0
M  V30 162 C 3.24934 -9.50071 0.0 0
M  V30 163 C 2.38149 -9.0103 0.0 0
M  V30 164 C 3.22535 -7.50789 0.0 0
M  V30 165 C 2.37041 -8.01878 0.0 0
M  V30 166 C 3.25789 -10.4944 0.0 0
M  V30 167 C 2.39922 -11.0012 0.0 0
M  V30 168 C 1.51939 -9.51907 0.0 0
M  V30 169 C 1.53466 -10.5151 0.0 0
M  V30 170 C 2.40973 -12.0024 0.0 0
M  V30 171 C 2.40973 -13.0037 0.0 0
M  V30 172 C 2.40973 -14.0051 0.0 0
M  V30 173 C 2.40973 -15.0064 0.0 0
M  V30 174 C 3.27745 -16.506 0.0 0
M  V30 175 C 3.27771 -15.5071 0.0 0
M  V30 176 C 2.4098 -17.0077 0.0 0
M  V30 177 C 1.53861 -15.5101 0.0 0
M  V30 178 C 1.54508 -16.5115 0.0 0
M  V30 179 C 4.14062 -15.0099 0.0 0
M  V30 180 C 5.00595 -15.5095 0.0 0
M  V30 181 C 4.14625 -17.0076 0.0 0
M  V30 182 C 5.00789 -16.5034 0.0 0
M  V30 183 C 0.669663 -15.0125 0.0 0
M  V30 184 C 0.68019 -17.0161 0.0 0
M  V30 185 C 4.14375 -18.0081 0.0 0
M  V30 186 C 2.41077 -18.0142 0.0 0
M  V30 187 C 3.28156 -18.5092 0.0 0
M  V30 188 C 5.87236 -16.9966 0.0 0
M  V30 189 C 5.87846 -17.9951 0.0 0
M  V30 190 C 5.02226 -18.4986 0.0 0
M  V30 191 C 6.73173 -16.4941 0.0 0
M  V30 192 C 7.59987 -16.988 0.0 0
M  V30 193 C 6.75007 -18.4909 0.0 0
M  V30 194 C 7.60814 -17.9815 0.0 0
M  V30 195 C 8.47267 -18.4711 0.0 0
M  V30 196 C 9.32894 -17.9672 0.0 0
M  V30 197 C 9.32067 -16.9737 0.0 0
M  V30 198 C 8.45614 -16.4841 0.0 0
M  V30 199 C 8.4809 -19.4646 0.0 0
M  V30 200 C 9.3454 -19.9542 0.0 0
M  V30 201 C 10.2017 -19.4503 0.0 0
M  V30 202 C 10.1934 -18.4568 0.0 0
M  V30 203 O 9.35369 -20.9277 0.0 0
M  V30 204 O 1.54553 -18.4904 0.0 0
M  V30 205 C 7.56793 -12.9792 0.0 0
M  V30 206 C 8.43566 -14.4788 0.0 0
M  V30 207 C 8.43591 -13.4799 0.0 0
M  V30 208 C 7.568 -14.9805 0.0 0
M  V30 209 C 6.69681 -13.4829 0.0 0
M  V30 210 C 6.70328 -14.4843 0.0 0
M  V30 211 C 9.96564 -13.985 0.0 0
M  V30 212 C 9.38872 -13.18 0.0 0
M  V30 213 C 9.37664 -14.7876 0.0 0
M  V30 214 H 2.84818 -2.75389 0.0 0
M  V30 215 H 2.84956 -4.76351 0.0 0
M  V30 216 H 8.04733 -2.7544 0.0 0
M  V30 217 H 8.92765 -6.24346 0.0 0
M  V30 218 H 3.72053 -6.27756 0.0 0
M  V30 219 H 7.17989 -1.25332 0.0 0
M  V30 220 H 3.71695 -1.22361 0.0 0
M  V30 221 H 8.26785 -3.47871 0.0 0
M  V30 222 H 9.55411 -3.47167 0.0 0
M  V30 223 H 8.92111 -6.24712 0.0 0
M  V30 224 H 10.6609 -7.23946 0.0 0
M  V30 225 H 12.0615 -8.1847 0.0 0
M  V30 226 H 11.4108 -7.07492 0.0 0
M  V30 227 H 12.2685 -7.69128 0.0 0
M  V30 228 H 14.4614 -5.2861 0.0 0
M  V30 229 H 15.1122 -6.39588 0.0 0
M  V30 230 H 6.3472 -7.76537 0.0 0
M  V30 231 H 8.0804 -7.74764 0.0 0
M  V30 232 H 4.60277 -7.75071 0.0 0
M  V30 233 H 9.78615 -2.70662 0.0 0
M  V30 234 H 13.2491 -2.73403 0.0 0
M  V30 235 H 11.5158 -2.73488 0.0 0
M  V30 236 H 12.3822 -2.2341 0.0 0
M  V30 237 H 14.2523 -2.73188 0.0 0
M  V30 238 H 16.8506 -1.20329 0.0 0
M  V30 239 H 20.7793 -2.70239 0.0 0
M  V30 240 H 19.0477 -1.7025 0.0 0
M  V30 241 H 24.0349 -5.69794 0.0 0
M  V30 242 H 22.842 -6.60045 0.0 0
M  V30 243 H 21.5104 -6.46175 0.0 0
M  V30 244 H 20.5331 -5.33673 0.0 0
M  V30 245 H 23.2815 -2.62005 0.0 0
M  V30 246 H 24.566 -3.78384 0.0 0
M  V30 247 H 24.2597 -2.83115 0.0 0
M  V30 248 H 19.921 -5.20427 0.0 0
M  V30 249 H 19.9232 -6.20629 0.0 0
M  V30 250 H 19.9225 -6.2082 0.0 0
M  V30 251 H 19.9225 -7.20892 0.0 0
M  V30 252 H 17.3163 -7.71634 0.0 0
M  V30 253 H 20.791 -8.71057 0.0 0
M  V30 254 H 21.6576 -7.20944 0.0 0
M  V30 255 H 21.6576 -8.21016 0.0 0
M  V30 256 H 16.8614 -7.21197 0.0 0
M  V30 257 H 21.1474 -11.0713 0.0 0
M  V30 258 H 22.1686 -9.35001 0.0 0
M  V30 259 H 21.661 -12.221 0.0 0
M  V30 260 H 23.4008 -13.2134 0.0 0
M  V30 261 H 25.5194 -9.44742 0.0 0
M  V30 262 H 27.382 -10.5044 0.0 0
M  V30 263 H 27.0303 -13.9504 0.0 0
M  V30 264 H 28.7628 -11.4781 0.0 0
M  V30 265 H 26.0323 -13.8533 0.0 0
M  V30 266 H 24.4515 -14.5644 0.0 0
M  V30 267 H 25.4472 -14.6652 0.0 0
M  V30 268 H 24.2593 -8.68045 0.0 0
M  V30 269 H 17.2261 -10.9627 0.0 0
M  V30 270 H 15.4837 -7.95713 0.0 0
M  V30 271 H 16.5143 -10.9625 0.0 0
M  V30 272 H 17.4964 -11.9723 0.0 0
M  V30 273 H 16.4974 -15.9664 0.0 0
M  V30 274 H 20.4798 -13.2607 0.0 0
M  V30 275 H 18.1356 -16.5007 0.0 0
M  V30 276 H 21.881 -14.2763 0.0 0
M  V30 277 H 23.2255 -17.0662 0.0 0
M  V30 278 H 21.4939 -16.0663 0.0 0
M  V30 279 H 19.7622 -19.0781 0.0 0
M  V30 280 H 21.5021 -20.0704 0.0 0
M  V30 281 H 24.0952 -17.5662 0.0 0
M  V30 282 H 25.8284 -20.5678 0.0 0
M  V30 283 H 22.3635 -20.5779 0.0 0
M  V30 284 H 24.1033 -21.5703 0.0 0
M  V30 285 H 26.6941 -19.0659 0.0 0
M  V30 286 H 13.8791 -13.4254 0.0 0
M  V30 287 H 14.2642 -14.1083 0.0 0
M  V30 288 H 15.2689 -15.8393 0.0 0
M  V30 289 H 13.707 -17.7593 0.0 0
M  V30 290 H 12.3849 -17.5488 0.0 0
M  V30 291 H 14.9421 -16.9255 0.0 0
M  V30 292 H 11.466 -16.3683 0.0 0
M  V30 293 H 12.4481 -14.4316 0.0 0
M  V30 294 H 13.1134 -8.20292 0.0 0
M  V30 295 H 14.3998 -8.19961 0.0 0
M  V30 296 H 13.7644 -9.96669 0.0 0
M  V30 297 H 12.9016 -11.4663 0.0 0
M  V30 298 H 14.409 -11.7268 0.0 0
M  V30 299 H 13.1225 -11.7301 0.0 0
M  V30 300 H 11.1547 -8.49031 0.0 0
M  V30 301 H 10.5283 -10.2413 0.0 0
M  V30 302 H 10.8323 -11.4113 0.0 0
M  V30 303 H 10.1862 -10.2988 0.0 0
M  V30 304 H 12.6821 -11.7312 0.0 0
M  V30 305 H 11.3956 -11.7345 0.0 0
M  V30 306 H 11.0188 -8.47671 0.0 0
M  V30 307 H 11.7127 -7.35222 0.0 0
M  V30 308 H 10.0438 -9.94167 0.0 0
M  V30 309 H 10.5593 -8.00776 0.0 0
M  V30 310 H 9.55919 -9.94109 0.0 0
M  V30 311 H 9.04118 -8.00786 0.0 0
M  V30 312 H 9.29966 -10.9776 0.0 0
M  V30 313 H 7.55723 -7.97199 0.0 0
M  V30 314 H 4.36925 -10.8311 0.0 0
M  V30 315 H 6.67999 -7.46975 0.0 0
M  V30 316 H 4.93693 -6.49462 0.0 0
M  V30 317 H 6.70988 -12.4742 0.0 0
M  V30 318 H 4.97417 -11.4777 0.0 0
M  V30 319 H 4.97659 -12.4784 0.0 0
M  V30 320 H 3.21319 -6.50725 0.0 0
M  V30 321 H 1.49728 -7.52983 0.0 0
M  V30 322 H 4.12904 -10.9869 0.0 0
M  V30 323 H 0.646587 -9.02953 0.0 0
M  V30 324 H 0.674794 -11.0271 0.0 0
M  V30 325 H 3.41044 -11.9972 0.0 0
M  V30 326 H 1.40903 -12.0077 0.0 0
M  V30 327 H 3.41045 -13.0037 0.0 0
M  V30 328 H 1.40902 -13.0037 0.0 0
M  V30 329 H 3.41045 -14.0051 0.0 0
M  V30 330 H 1.40902 -14.0051 0.0 0
M  V30 331 H 4.14106 -14.0092 0.0 0
M  V30 332 H 5.8721 -15.0083 0.0 0
M  V30 333 H 0.673231 -16.0133 0.0 0
M  V30 334 H -0.198762 -14.5153 0.0 0
M  V30 335 H -0.195193 -15.516 0.0 0
M  V30 336 H -0.188713 -16.5196 0.0 0
M  V30 337 H 0.684722 -18.0168 0.0 0
M  V30 338 H -0.184181 -17.5203 0.0 0
M  V30 339 H 3.28638 -19.5099 0.0 0
M  V30 340 H 5.03345 -19.4993 0.0 0
M  V30 341 H 6.7258 -15.4934 0.0 0
M  V30 342 H 6.75937 -19.4916 0.0 0
M  V30 343 H 7.6102 -18.9786 0.0 0
M  V30 344 H 10.1914 -17.4597 0.0 0
M  V30 345 H 9.65511 -16.0305 0.0 0
M  V30 346 H 10.3076 -17.1393 0.0 0
M  V30 347 H 7.80655 -15.7229 0.0 0
M  V30 348 H 9.093 -15.7122 0.0 0
M  V30 349 H 8.14643 -20.4078 0.0 0
M  V30 350 H 7.49398 -19.299 0.0 0
M  V30 351 H 10.3324 -20.1196 0.0 0
M  V30 352 H 11.1857 -19.2684 0.0 0
M  V30 353 H 10.5517 -20.3878 0.0 0
M  V30 354 H 10.5279 -17.5137 0.0 0
M  V30 355 H 11.1804 -18.6224 0.0 0
M  V30 356 H 8.49134 -21.4354 0.0 0
M  V30 357 H 1.52505 -19.491 0.0 0
M  V30 358 H 7.56964 -15.9813 0.0 0
M  V30 359 H 5.82839 -12.9856 0.0 0
M  V30 360 H 5.83891 -14.9886 0.0 0
M  V30 361 H 10.9663 -13.9906 0.0 0
M  V30 362 H 8.98933 -12.2625 0.0 0
M  V30 363 H 10.259 -12.6861 0.0 0
M  V30 364 H 9.68222 -15.7405 0.0 0
M  V30 END ATOM
M  V30 BEGIN BOND
M  V30 1 1 3 1
M  V30 2 2 1 5
M  V30 3 1 5 6
M  V30 4 2 6 4
M  V30 5 1 4 2
M  V30 6 2 2 3
M  V30 7 1 4 9
M  V30 8 2 9 10
M  V30 9 1 10 8
M  V30 10 2 8 7
M  V30 11 1 7 2
M  V30 12 1 9 13
M  V30 13 2 13 14
M  V30 14 1 14 12
M  V30 15 2 12 11
M  V30 16 1 11 10
M  V30 17 1 6 16
M  V30 18 2 16 15
M  V30 19 1 15 13
M  V30 20 1 7 17
M  V30 21 1 3 18
M  V30 22 1 11 19
M  V30 23 1 19 20
M  V30 24 2 22 20
M  V30 25 1 20 24
M  V30 26 2 24 25
M  V30 27 1 25 23
M  V30 28 2 23 21
M  V30 29 1 21 22
M  V30 30 1 23 28
M  V30 31 2 28 29
M  V30 32 1 29 27
M  V30 33 2 27 26
M  V30 34 1 26 21
M  V30 35 1 28 30
M  V30 36 1 30 31
M  V30 37 1 31 32
M  V30 38 1 32 33
M  V30 39 1 33 29
M  V30 40 2 32 34
M  V30 41 1 27 35
M  V30 42 1 14 36
M  V30 43 1 15 37
M  V30 44 1 22 38
M  V30 45 1 26 39
M  V30 46 1 35 40
M  V30 47 1 42 40
M  V30 48 2 40 44
M  V30 49 1 44 45
M  V30 50 2 45 43
M  V30 51 1 43 41
M  V30 52 2 41 42
M  V30 53 1 41 46
M  V30 54 1 43 47
M  V30 55 1 45 48
M  V30 56 1 50 47
M  V30 57 2 47 52
M  V30 58 1 52 53
M  V30 59 2 53 51
M  V30 60 1 51 49
M  V30 61 2 49 50
M  V30 62 1 52 48
M  V30 63 1 51 54
M  V30 64 1 54 55
M  V30 65 2 55 59
M  V30 66 1 59 58
M  V30 67 1 58 56
M  V30 68 2 56 57
M  V30 69 1 57 55
M  V30 70 1 57 60
M  V30 71 1 53 61
M  V30 72 1 61 62
M  V30 73 1 62 63
M  V30 74 1 65 63
M  V30 75 2 63 67
M  V30 76 1 67 68
M  V30 77 2 68 66
M  V30 78 1 66 64
M  V30 79 2 64 65
M  V30 80 1 65 69
M  V30 81 1 44 70
M  V30 82 2 70 71
M  V30 83 1 70 72
M  V30 84 1 68 73
M  V30 85 1 64 74
M  V30 86 1 74 75
M  V30 87 1 75 76
M  V30 88 1 78 76
M  V30 89 2 76 80
M  V30 90 1 80 81
M  V30 91 2 81 79
M  V30 92 1 79 77
M  V30 93 2 77 78
M  V30 94 1 79 84
M  V30 95 2 84 83
M  V30 96 1 83 82
M  V30 97 1 82 77
M  V30 98 1 84 87
M  V30 99 2 87 88
M  V30 100 1 88 86
M  V30 101 2 86 85
M  V30 102 1 85 83
M  V30 103 1 86 89
M  V30 104 1 87 90
M  V30 105 1 78 91
M  V30 106 1 73 92
M  V30 107 1 94 92
M  V30 108 2 92 96
M  V30 109 1 96 97
M  V30 110 2 97 95
M  V30 111 1 95 93
M  V30 112 2 93 94
M  V30 113 1 93 98
M  V30 114 1 98 99
M  V30 115 1 99 100
M  V30 116 2 102 100
M  V30 117 1 100 104
M  V30 118 2 104 105
M  V30 119 1 105 103
M  V30 120 2 103 101
M  V30 121 1 101 102
M  V30 122 1 101 108
M  V30 123 2 108 107
M  V30 124 1 107 106
M  V30 125 1 106 102
M  V30 126 1 108 111
M  V30 127 2 111 112
M  V30 128 1 112 110
M  V30 129 2 110 109
M  V30 130 1 109 107
M  V30 131 1 110 113
M  V30 132 1 112 114
M  V30 133 1 114 115
M  V30 134 1 117 115
M  V30 135 2 115 119
M  V30 136 1 119 120
M  V30 137 2 120 118
M  V30 138 1 118 116
M  V30 139 2 116 117
M  V30 140 1 118 121
M  V30 141 1 123 121
M  V30 142 2 121 125
M  V30 143 1 125 126
M  V30 144 2 126 124
M  V30 145 1 124 122
M  V30 146 2 122 123
M  V30 147 1 122 127
M  V30 148 1 104 128
M  V30 149 1 105 129
M  V30 150 1 129 130
M  V30 151 1 130 134
M  V30 152 2 134 133
M  V30 153 1 133 131
M  V30 154 1 131 132
M  V30 155 2 132 130
M  V30 156 1 97 135
M  V30 157 1 135 136
M  V30 158 1 136 137
M  V30 159 1 137 138
M  V30 160 1 138 95
M  V30 161 1 136 139
M  V30 162 1 139 140
M  V30 163 1 140 141
M  V30 164 1 141 142
M  V30 165 1 142 137
M  V30 166 1 31 143
M  V30 167 1 143 139
M  V30 168 1 140 144
M  V30 169 1 144 145
M  V30 170 1 145 146
M  V30 171 2 148 146
M  V30 172 1 146 150
M  V30 173 2 150 151
M  V30 174 1 151 149
M  V30 175 2 149 147
M  V30 176 1 147 148
M  V30 177 1 151 154
M  V30 178 2 154 155
M  V30 179 1 155 153
M  V30 180 2 153 152
M  V30 181 1 152 149
M  V30 182 1 154 158
M  V30 183 2 158 159
M  V30 184 1 159 157
M  V30 185 2 157 156
M  V30 186 1 156 155
M  V30 187 1 147 160
M  V30 188 1 152 161
M  V30 189 1 157 164
M  V30 190 2 164 165
M  V30 191 1 165 163
M  V30 192 2 163 162
M  V30 193 1 162 156
M  V30 194 1 163 168
M  V30 195 2 168 169
M  V30 196 1 169 167
M  V30 197 2 167 166
M  V30 198 1 166 162
M  V30 199 1 167 170
M  V30 200 1 170 171
M  V30 201 1 171 172
M  V30 202 1 172 173
M  V30 203 1 175 173
M  V30 204 2 173 177
M  V30 205 1 177 178
M  V30 206 2 178 176
M  V30 207 1 176 174
M  V30 208 2 174 175
M  V30 209 1 174 181
M  V30 210 2 181 182
M  V30 211 1 182 180
M  V30 212 2 180 179
M  V30 213 1 179 175
M  V30 214 1 177 183
M  V30 215 1 178 184
M  V30 216 1 176 186
M  V30 217 2 186 187
M  V30 218 1 187 185
M  V30 219 1 185 181
M  V30 220 2 185 190
M  V30 221 1 190 189
M  V30 222 1 189 188
M  V30 223 1 188 182
M  V30 224 2 189 193
M  V30 225 1 193 194
M  V30 226 2 194 192
M  V30 227 1 192 191
M  V30 228 2 191 188
M  V30 229 1 194 195
M  V30 230 1 195 196
M  V30 231 1 196 197
M  V30 232 1 197 198
M  V30 233 1 198 192
M  V30 234 1 195 199
M  V30 235 1 199 200
M  V30 236 1 200 201
M  V30 237 1 201 202
M  V30 238 1 202 196
M  V30 239 1 200 203
M  V30 240 1 186 204
M  V30 241 1 160 205
M  V30 242 1 207 205
M  V30 243 2 205 209
M  V30 244 1 209 210
M  V30 245 2 210 208
M  V30 246 1 208 206
M  V30 247 2 206 207
M  V30 248 1 206 213
M  V30 249 2 213 211
M  V30 250 1 211 212
M  V30 251 1 212 207
M  V30 252 1 1 214
M  V30 253 1 5 215
M  V30 254 1 8 216
M  V30 255 1 12 217
M  V30 256 1 16 218
M  V30 257 1 17 219
M  V30 258 1 18 220
M  V30 259 1 19 221
M  V30 260 1 19 222
M  V30 261 1 24 223
M  V30 262 1 25 224
M  V30 263 1 30 225
M  V30 264 1 30 226
M  V30 265 1 31 227
M  V30 266 1 33 228
M  V30 267 1 33 229
M  V30 268 1 36 230
M  V30 269 1 36 231
M  V30 270 1 37 232
M  V30 271 1 38 233
M  V30 272 1 39 234
M  V30 273 1 39 235
M  V30 274 1 39 236
M  V30 275 1 42 237
M  V30 276 1 46 238
M  V30 277 1 49 239
M  V30 278 1 50 240
M  V30 279 1 56 241
M  V30 280 1 58 242
M  V30 281 1 58 243
M  V30 282 1 59 244
M  V30 283 1 60 245
M  V30 284 1 60 246
M  V30 285 1 60 247
M  V30 286 1 61 248
M  V30 287 1 61 249
M  V30 288 1 62 250
M  V30 289 1 62 251
M  V30 290 1 67 252
M  V30 291 1 69 253
M  V30 292 1 69 254
M  V30 293 1 69 255
M  V30 294 1 72 256
M  V30 295 1 75 257
M  V30 296 1 75 258
M  V30 297 1 80 259
M  V30 298 1 81 260
M  V30 299 1 82 261
M  V30 300 1 85 262
M  V30 301 1 88 263
M  V30 302 1 89 264
M  V30 303 1 90 265
M  V30 304 1 90 266
M  V30 305 1 90 267
M  V30 306 1 91 268
M  V30 307 1 94 269
M  V30 308 1 96 270
M  V30 309 1 99 271
M  V30 310 1 99 272
M  V30 311 1 103 273
M  V30 312 1 109 274
M  V30 313 1 111 275
M  V30 314 1 113 276
M  V30 315 1 116 277
M  V30 316 1 117 278
M  V30 317 1 119 279
M  V30 318 1 120 280
M  V30 319 1 123 281
M  V30 320 1 124 282
M  V30 321 1 125 283
M  V30 322 1 126 284
M  V30 323 1 127 285
M  V30 324 1 128 286
M  V30 325 1 129 287
M  V30 326 1 129 288
M  V30 327 1 131 289
M  V30 328 1 131 290
M  V30 329 1 132 291
M  V30 330 1 133 292
M  V30 331 1 134 293
M  V30 332 1 135 294
M  V30 333 1 135 295
M  V30 334 1 136 296
M  V30 335 1 137 297
M  V30 336 1 138 298
M  V30 337 1 138 299
M  V30 338 1 139 300
M  V30 339 1 140 301
M  V30 340 1 141 302
M  V30 341 1 141 303
M  V30 342 1 142 304
M  V30 343 1 142 305
M  V30 344 1 143 306
M  V30 345 1 143 307
M  V30 346 1 144 308
M  V30 347 1 144 309
M  V30 348 1 145 310
M  V30 349 1 145 311
M  V30 350 1 148 312
M  V30 351 1 150 313
M  V30 352 1 153 314
M  V30 353 1 158 315
M  V30 354 1 159 316
M  V30 355 1 161 317
M  V30 356 1 161 318
M  V30 357 1 161 319
M  V30 358 1 164 320
M  V30 359 1 165 321
M  V30 360 1 166 322
M  V30 361 1 168 323
M  V30 362 1 169 324
M  V30 363 1 170 325
M  V30 364 1 170 326
M  V30 365 1 171 327
M  V30 366 1 171 328
M  V30 367 1 172 329
M  V30 368 1 172 330
M  V30 369 1 179 331
M  V30 370 1 180 332
M  V30 371 1 183 333
M  V30 372 1 183 334
M  V30 373 1 183 335
M  V30 374 1 184 336
M  V30 375 1 184 337
M  V30 376 1 184 338
M  V30 377 1 187 339
M  V30 378 1 190 340
M  V30 379 1 191 341
M  V30 380 1 193 342
M  V30 381 1 195 343
M  V30 382 1 196 344
M  V30 383 1 197 345
M  V30 384 1 197 346
M  V30 385 1 198 347
M  V30 386 1 198 348
M  V30 387 1 199 349
M  V30 388 1 199 350
M  V30 389 1 200 351
M  V30 390 1 201 352
M  V30 391 1 201 353
M  V30 392 1 202 354
M  V30 393 1 202 355
M  V30 394 1 203 356
M  V30 395 1 204 357
M  V30 396 1 208 358
M  V30 397 1 209 359
M  V30 398 1 210 360
M  V30 399 1 211 361
M  V30 400 1 212 362
M  V30 401 1 212 363
M  V30 402 1 213 364
M  V30 END BOND
M  V30 END CTAB
M  END
