null
  Ketcher 103125 0352D 1   1.00000     0.00000     0

213251  0  0  0  0  0  0  0  0999 V2000
    3.7121   -3.2520    0.0000 C   0  0  0  0  0  0  0  0  0  0  0  0
    5.4434   -3.2516    0.0000 C   0  0  0  0  0  0  0  0  0  0  0  0
    4.5794   -2.7516    0.0000 C   0  0  0  0  0  0  0  0  0  0  0  0
    5.4434   -4.2531    0.0000 C   0  0  0  0  0  0  0  0  0  0  0  0
    3.7121   -4.2576    0.0000 C   0  0  0  0  0  0  0  0  0  0  0  0
    4.5816   -4.7529    0.0000 C   0  0  0  0  0  0  0  0  0  0  0  0
    6.3085   -2.7529    0.0000 C   0  0  0  0  0  0  0  0  0  0  0  0
    7.1762   -3.2535    0.0000 C   0  0  0  0  0  0  0  0  0  0  0  0
    6.3146   -4.7557    0.0000 C   0  0  0  0  0  0  0  0  0  0  0  0
    7.1784   -4.2500    0.0000 C   0  0  0  0  0  0  0  0  0  0  0  0
    8.0452   -4.7442    0.0000 C   0  0  0  0  0  0  0  0  0  0  0  0
    8.0516   -5.7454    0.0000 C   0  0  0  0  0  0  0  0  0  0  0  0
    6.3210   -5.7609    0.0000 C   0  0  0  0  0  0  0  0  0  0  0  0
    7.1933   -6.2504    0.0000 C   0  0  0  0  0  0  0  0  0  0  0  0
    5.4561   -6.2668    0.0000 C   0  0  0  0  0  0  0  0  0  0  0  0
    4.5821   -5.7700    0.0000 C   0  0  0  0  0  0  0  0  0  0  0  0
    6.3086   -1.7523    0.0000 S   0  0  0  0  0  0  0  0  0  0  0  0
    4.5800   -1.7232    0.0000 O   0  0  0  0  0  0  0  0  0  0  0  0
    8.9088   -4.2388    0.0000 C   0  0  0  0  0  0  0  0  0  0  0  0
    9.7783   -4.7340    0.0000 C   0  0  0  0  0  0  0  0  0  0  0  0
   11.5096   -4.7324    0.0000 C   0  0  0  0  0  0  0  0  0  0  0  0
   10.6453   -4.2330    0.0000 C   0  0  0  0  0  0  0  0  0  0  0  0
   11.5103   -5.7339    0.0000 C   0  0  0  0  0  0  0  0  0  0  0  0
    9.7790   -5.7396    0.0000 C   0  0  0  0  0  0  0  0  0  0  0  0
   10.6488   -6.2343    0.0000 C   0  0  0  0  0  0  0  0  0  0  0  0
   12.3743   -4.2331    0.0000 C   0  0  0  0  0  0  0  0  0  0  0  0
   13.2424   -4.7332    0.0000 C   0  0  0  0  0  0  0  0  0  0  0  0
   12.3818   -6.2360    0.0000 C   0  0  0  0  0  0  0  0  0  0  0  0
   13.2452   -5.7297    0.0000 C   0  0  0  0  0  0  0  0  0  0  0  0
   12.3886   -7.2369    0.0000 C   0  0  0  0  0  0  0  0  0  0  0  0
   13.2587   -7.7315    0.0000 C   0  0  0  0  0  0  0  0  0  0  0  0
   14.1221   -7.2252    0.0000 C   0  0  0  0  0  0  0  0  0  0  0  0
   14.1154   -6.2243    0.0000 C   0  0  0  0  0  0  0  0  0  0  0  0
   14.9920   -7.6919    0.0000 O   0  0  0  0  0  0  0  0  0  0  0  0
   14.1079   -4.2034    0.0000 O   0  0  0  0  0  0  0  0  0  0  0  0
    7.2035   -7.2510    0.0000 N   0  0  0  0  0  0  0  0  0  0  0  0
    5.4623   -7.2397    0.0000 O   0  0  0  0  0  0  0  0  0  0  0  0
   10.6452   -3.2046    0.0000 O   0  0  0  0  0  0  0  0  0  0  0  0
   12.3738   -3.2325    0.0000 C   0  0  0  0  0  0  0  0  0  0  0  0
   15.1085   -4.2312    0.0000 C   0  0  0  0  0  0  0  0  0  0  0  0
   15.9728   -2.7310    0.0000 C   0  0  0  0  0  0  0  0  0  0  0  0
   15.1082   -3.2299    0.0000 C   0  0  0  0  0  0  0  0  0  0  0  0
   16.8405   -3.2312    0.0000 C   0  0  0  0  0  0  0  0  0  0  0  0
   15.9797   -4.7334    0.0000 C   0  0  0  0  0  0  0  0  0  0  0  0
   16.8431   -4.2275    0.0000 C   0  0  0  0  0  0  0  0  0  0  0  0
   15.9726   -1.7026    0.0000 O   0  0  0  0  0  0  0  0  0  0  0  0
   18.1671   -3.2023    0.0000 C   0  0  0  0  0  0  0  0  0  0  0  0
   17.5353   -4.8121    0.0000 S   0  0  0  0  0  0  0  0  0  0  0  0
   19.8985   -3.2006    0.0000 C   0  0  0  0  0  0  0  0  0  0  0  0
   19.0341   -2.7013    0.0000 C   0  0  0  0  0  0  0  0  0  0  0  0
   19.8992   -4.2022    0.0000 C   0  0  0  0  0  0  0  0  0  0  0  0
   18.1678   -4.2078    0.0000 C   0  0  0  0  0  0  0  0  0  0  0  0
   19.0377   -4.7026    0.0000 C   0  0  0  0  0  0  0  0  0  0  0  0
   20.8998   -4.1744    0.0000 O   0  0  0  0  0  0  0  0  0  0  0  0
   21.9004   -4.2022    0.0000 C   0  0  0  0  0  0  0  0  0  0  0  0
   23.1045   -5.2864    0.0000 C   0  0  0  0  0  0  0  0  0  0  0  0
   22.8991   -4.3117    0.0000 C   0  0  0  0  0  0  0  0  0  0  0  0
   22.2373   -5.7871    0.0000 C   0  0  0  0  0  0  0  0  0  0  0  0
   21.4958   -5.1219    0.0000 C   0  0  0  0  0  0  0  0  0  0  0  0
   23.5709   -3.5702    0.0000 C   0  0  0  0  0  0  0  0  0  0  0  0
   19.0422   -5.7032    0.0000 C   0  0  0  0  0  0  0  0  0  0  0  0
   19.0422   -6.7038    0.0000 C   0  0  0  0  0  0  0  0  0  0  0  0
   19.0422   -7.7044    0.0000 C   0  0  0  0  0  0  0  0  0  0  0  0
   19.9093   -9.2029    0.0000 C   0  0  0  0  0  0  0  0  0  0  0  0
   19.9095   -8.2047    0.0000 C   0  0  0  0  0  0  0  0  0  0  0  0
   19.0423   -9.7043    0.0000 N   0  0  0  0  0  0  0  0  0  0  0  0
   18.1717   -8.2077    0.0000 C   0  0  0  0  0  0  0  0  0  0  0  0
   18.1782   -9.2084    0.0000 C   0  0  0  0  0  0  0  0  0  0  0  0
   20.7761   -7.7043    0.0000 C   0  0  0  0  0  0  0  0  0  0  0  0
   15.9833   -5.7340    0.0000 C   0  0  0  0  0  0  0  0  0  0  0  0
   16.9839   -5.7062    0.0000 O   0  0  0  0  0  0  0  0  0  0  0  0
   15.9833   -6.7068    0.0000 O   0  0  0  0  0  0  0  0  0  0  0  0
   17.3139   -9.6848    0.0000 O   0  0  0  0  0  0  0  0  0  0  0  0
   20.7759   -9.6753    0.0000 O   0  0  0  0  0  0  0  0  0  0  0  0
   21.6425  -10.2034    0.0000 C   0  0  0  0  0  0  0  0  0  0  0  0
   22.5090  -10.7037    0.0000 C   0  0  0  0  0  0  0  0  0  0  0  0
   24.2404  -10.7020    0.0000 C   0  0  0  0  0  0  0  0  0  0  0  0
   23.3760  -10.2027    0.0000 C   0  0  0  0  0  0  0  0  0  0  0  0
   24.2410  -11.7036    0.0000 C   0  0  0  0  0  0  0  0  0  0  0  0
   22.5097  -11.7092    0.0000 C   0  0  0  0  0  0  0  0  0  0  0  0
   23.3795  -12.2039    0.0000 C   0  0  0  0  0  0  0  0  0  0  0  0
   25.1927  -10.3919    0.0000 N   0  0  0  0  0  0  0  0  0  0  0  0
   25.7820  -11.2018    0.0000 C   0  0  0  0  0  0  0  0  0  0  0  0
   25.1938  -12.0125    0.0000 C   0  0  0  0  0  0  0  0  0  0  0  0
   26.7750  -11.3062    0.0000 C   0  0  0  0  0  0  0  0  0  0  0  0
   27.1833  -12.2210    0.0000 C   0  0  0  0  0  0  0  0  0  0  0  0
   25.6038  -12.9309    0.0000 C   0  0  0  0  0  0  0  0  0  0  0  0
   26.5999  -13.0288    0.0000 C   0  0  0  0  0  0  0  0  0  0  0  0
   28.1786  -12.2959    0.0000 O   0  0  0  0  0  0  0  0  0  0  0  0
   25.0187  -13.7427    0.0000 C   0  0  0  0  0  0  0  0  0  0  0  0
   23.3759   -9.1743    0.0000 O   0  0  0  0  0  0  0  0  0  0  0  0
   16.3474   -9.4536    0.0000 C   0  0  0  0  0  0  0  0  0  0  0  0
   15.4831  -10.9538    0.0000 C   0  0  0  0  0  0  0  0  0  0  0  0
   16.3477  -10.4549    0.0000 C   0  0  0  0  0  0  0  0  0  0  0  0
   14.6154  -10.4536    0.0000 C   0  0  0  0  0  0  0  0  0  0  0  0
   15.4762   -8.9514    0.0000 C   0  0  0  0  0  0  0  0  0  0  0  0
   14.6128   -9.4574    0.0000 C   0  0  0  0  0  0  0  0  0  0  0  0
   15.4833  -11.9267    0.0000 O   0  0  0  0  0  0  0  0  0  0  0  0
   16.4839  -11.9544    0.0000 C   0  0  0  0  0  0  0  0  0  0  0  0
   16.4839  -12.9550    0.0000 C   0  0  0  0  0  0  0  0  0  0  0  0
   17.3510  -14.4536    0.0000 C   0  0  0  0  0  0  0  0  0  0  0  0
   17.3513  -13.4554    0.0000 C   0  0  0  0  0  0  0  0  0  0  0  0
   16.4840  -14.9550    0.0000 C   0  0  0  0  0  0  0  0  0  0  0  0
   15.6134  -13.4584    0.0000 C   0  0  0  0  0  0  0  0  0  0  0  0
   15.6199  -14.4591    0.0000 C   0  0  0  0  0  0  0  0  0  0  0  0
   18.3008  -13.1194    0.0000 O   0  0  0  0  0  0  0  0  0  0  0  0
   18.8873  -13.9550    0.0000 C   0  0  0  0  0  0  0  0  0  0  0  0
   18.3004  -14.7624    0.0000 C   0  0  0  0  0  0  0  0  0  0  0  0
   19.8770  -14.0599    0.0000 C   0  0  0  0  0  0  0  0  0  0  0  0
   20.2831  -14.9721    0.0000 C   0  0  0  0  0  0  0  0  0  0  0  0
   18.7081  -15.6782    0.0000 C   0  0  0  0  0  0  0  0  0  0  0  0
   19.7008  -15.7767    0.0000 C   0  0  0  0  0  0  0  0  0  0  0  0
   21.2783  -15.0757    0.0000 O   0  0  0  0  0  0  0  0  0  0  0  0
   20.1113  -16.6892    0.0000 O   0  0  0  0  0  0  0  0  0  0  0  0
   20.6116  -17.5558    0.0000 C   0  0  0  0  0  0  0  0  0  0  0  0
   22.3430  -17.5541    0.0000 C   0  0  0  0  0  0  0  0  0  0  0  0
   21.4786  -17.0548    0.0000 C   0  0  0  0  0  0  0  0  0  0  0  0
   22.3437  -18.5557    0.0000 C   0  0  0  0  0  0  0  0  0  0  0  0
   20.6123  -18.5613    0.0000 C   0  0  0  0  0  0  0  0  0  0  0  0
   21.4821  -19.0561    0.0000 C   0  0  0  0  0  0  0  0  0  0  0  0
   23.2110  -19.0546    0.0000 C   0  0  0  0  0  0  0  0  0  0  0  0
   24.9424  -19.0529    0.0000 C   0  0  0  0  0  0  0  0  0  0  0  0
   24.0780  -18.5536    0.0000 C   0  0  0  0  0  0  0  0  0  0  0  0
   24.9430  -20.0545    0.0000 C   0  0  0  0  0  0  0  0  0  0  0  0
   23.2117  -20.0601    0.0000 C   0  0  0  0  0  0  0  0  0  0  0  0
   24.0815  -20.5549    0.0000 C   0  0  0  0  0  0  0  0  0  0  0  0
   25.8088  -18.5524    0.0000 O   0  0  0  0  0  0  0  0  0  0  0  0
   14.7451  -12.9334    0.0000 O   0  0  0  0  0  0  0  0  0  0  0  0
   14.7556  -14.9633    0.0000 C   0  0  0  0  0  0  0  0  0  0  0  0
   13.8891  -15.4636    0.0000 C   0  0  0  0  0  0  0  0  0  0  0  0
   13.1535  -16.9073    0.0000 C   0  0  0  0  0  0  0  0  0  0  0  0
   14.0418  -16.4566    0.0000 C   0  0  0  0  0  0  0  0  0  0  0  0
   12.4454  -16.1993    0.0000 C   0  0  0  0  0  0  0  0  0  0  0  0
   12.8960  -15.3109    0.0000 C   0  0  0  0  0  0  0  0  0  0  0  0
   13.7487   -8.9614    0.0000 C   0  0  0  0  0  0  0  0  0  0  0  0
   12.8872   -9.4618    0.0000 C   0  0  0  0  0  0  0  0  0  0  0  0
   12.8898  -10.4581    0.0000 C   0  0  0  0  0  0  0  0  0  0  0  0
   13.7539  -10.9540    0.0000 C   0  0  0  0  0  0  0  0  0  0  0  0
   12.0231   -8.9659    0.0000 C   0  0  0  0  0  0  0  0  0  0  0  0
   11.1616   -9.4662    0.0000 C   0  0  0  0  0  0  0  0  0  0  0  0
   11.1641  -10.4625    0.0000 C   0  0  0  0  0  0  0  0  0  0  0  0
   12.0282  -10.9584    0.0000 C   0  0  0  0  0  0  0  0  0  0  0  0
   11.9968   -8.3032    0.0000 C   0  0  0  0  0  0  0  0  0  0  0  0
   10.2937   -8.9682    0.0000 C   0  0  0  0  0  0  0  0  0  0  0  0
    9.2931   -8.9682    0.0000 C   0  0  0  0  0  0  0  0  0  0  0  0
    8.4266   -9.4685    0.0000 C   0  0  0  0  0  0  0  0  0  0  0  0
    7.5623  -10.9687    0.0000 C   0  0  0  0  0  0  0  0  0  0  0  0
    8.4269  -10.4698    0.0000 C   0  0  0  0  0  0  0  0  0  0  0  0
    6.6946  -10.4685    0.0000 C   0  0  0  0  0  0  0  0  0  0  0  0
    7.5554   -8.9663    0.0000 C   0  0  0  0  0  0  0  0  0  0  0  0
    6.6920   -9.4722    0.0000 C   0  0  0  0  0  0  0  0  0  0  0  0
    5.8354  -10.9668    0.0000 C   0  0  0  0  0  0  0  0  0  0  0  0
    4.9710  -10.4710    0.0000 C   0  0  0  0  0  0  0  0  0  0  0  0
    5.8241   -8.9745    0.0000 C   0  0  0  0  0  0  0  0  0  0  0  0
    4.9662   -9.4797    0.0000 C   0  0  0  0  0  0  0  0  0  0  0  0
    4.1027   -8.9904    0.0000 C   0  0  0  0  0  0  0  0  0  0  0  0
    4.0937   -7.9945    0.0000 C   0  0  0  0  0  0  0  0  0  0  0  0
    5.8152   -7.9746    0.0000 C   0  0  0  0  0  0  0  0  0  0  0  0
    4.9462   -7.4899    0.0000 C   0  0  0  0  0  0  0  0  0  0  0  0
    7.5625  -11.9693    0.0000 S   0  0  0  0  0  0  0  0  0  0  0  0
    5.8378  -11.9674    0.0000 C   0  0  0  0  0  0  0  0  0  0  0  0
    3.2470   -9.4939    0.0000 C   0  0  0  0  0  0  0  0  0  0  0  0
    2.3798   -9.0039    0.0000 C   0  0  0  0  0  0  0  0  0  0  0  0
    3.2230   -7.5025    0.0000 C   0  0  0  0  0  0  0  0  0  0  0  0
    2.3687   -8.0130    0.0000 C   0  0  0  0  0  0  0  0  0  0  0  0
    3.2556  -10.4869    0.0000 C   0  0  0  0  0  0  0  0  0  0  0  0
    2.3975  -10.9933    0.0000 C   0  0  0  0  0  0  0  0  0  0  0  0
    1.5183   -9.5123    0.0000 C   0  0  0  0  0  0  0  0  0  0  0  0
    1.5336  -10.5076    0.0000 C   0  0  0  0  0  0  0  0  0  0  0  0
    2.4080  -11.9938    0.0000 C   0  0  0  0  0  0  0  0  0  0  0  0
    2.4080  -12.9944    0.0000 C   0  0  0  0  0  0  0  0  0  0  0  0
    2.4080  -13.9950    0.0000 C   0  0  0  0  0  0  0  0  0  0  0  0
    2.4080  -14.9956    0.0000 C   0  0  0  0  0  0  0  0  0  0  0  0
    3.2751  -16.4942    0.0000 C   0  0  0  0  0  0  0  0  0  0  0  0
    3.2754  -15.4960    0.0000 C   0  0  0  0  0  0  0  0  0  0  0  0
    2.4081  -16.9956    0.0000 C   0  0  0  0  0  0  0  0  0  0  0  0
    1.5375  -15.4990    0.0000 C   0  0  0  0  0  0  0  0  0  0  0  0
    1.5440  -16.4997    0.0000 C   0  0  0  0  0  0  0  0  0  0  0  0
    4.1377  -14.9992    0.0000 C   0  0  0  0  0  0  0  0  0  0  0  0
    5.0024  -15.4984    0.0000 C   0  0  0  0  0  0  0  0  0  0  0  0
    4.1433  -16.9954    0.0000 C   0  0  0  0  0  0  0  0  0  0  0  0
    5.0043  -16.4916    0.0000 C   0  0  0  0  0  0  0  0  0  0  0  0
    0.6692  -15.0018    0.0000 C   0  0  0  0  0  0  0  0  0  0  0  0
    0.6797  -17.0039    0.0000 C   0  0  0  0  0  0  0  0  0  0  0  0
    4.1408  -17.9952    0.0000 C   0  0  0  0  0  0  0  0  0  0  0  0
    2.4090  -18.0014    0.0000 C   0  0  0  0  0  0  0  0  0  0  0  0
    3.2792  -18.4959    0.0000 C   0  0  0  0  0  0  0  0  0  0  0  0
    5.8682  -16.9844    0.0000 C   0  0  0  0  0  0  0  0  0  0  0  0
    5.8743  -17.9822    0.0000 C   0  0  0  0  0  0  0  0  0  0  0  0
    5.0187  -18.4854    0.0000 C   0  0  0  0  0  0  0  0  0  0  0  0
    6.7269  -16.4823    0.0000 C   0  0  0  0  0  0  0  0  0  0  0  0
    7.5944  -16.9758    0.0000 C   0  0  0  0  0  0  0  0  0  0  0  0
    6.7452  -18.4777    0.0000 C   0  0  0  0  0  0  0  0  0  0  0  0
    7.6027  -17.9686    0.0000 C   0  0  0  0  0  0  0  0  0  0  0  0
    8.4666  -18.4579    0.0000 C   0  0  0  0  0  0  0  0  0  0  0  0
    9.3223  -17.9543    0.0000 C   0  0  0  0  0  0  0  0  0  0  0  0
    9.3140  -16.9616    0.0000 C   0  0  0  0  0  0  0  0  0  0  0  0
    8.4501  -16.4723    0.0000 C   0  0  0  0  0  0  0  0  0  0  0  0
    8.4748  -19.4507    0.0000 C   0  0  0  0  0  0  0  0  0  0  0  0
    9.3387  -19.9399    0.0000 C   0  0  0  0  0  0  0  0  0  0  0  0
   10.1944  -19.4364    0.0000 C   0  0  0  0  0  0  0  0  0  0  0  0
   10.1861  -18.4436    0.0000 C   0  0  0  0  0  0  0  0  0  0  0  0
    9.3470  -20.9127    0.0000 O   0  0  0  0  0  0  0  0  0  0  0  0
    1.5444  -18.4772    0.0000 O   0  0  0  0  0  0  0  0  0  0  0  0
    7.5625  -12.9699    0.0000 C   0  0  0  0  0  0  0  0  0  0  0  0
    8.4296  -14.4685    0.0000 C   0  0  0  0  0  0  0  0  0  0  0  0
    8.4299  -13.4702    0.0000 C   0  0  0  0  0  0  0  0  0  0  0  0
    7.5626  -14.9698    0.0000 C   0  0  0  0  0  0  0  0  0  0  0  0
    6.6920  -13.4732    0.0000 C   0  0  0  0  0  0  0  0  0  0  0  0
    6.6985  -14.4739    0.0000 C   0  0  0  0  0  0  0  0  0  0  0  0
    9.9585  -13.9749    0.0000 C   0  0  0  0  0  0  0  0  0  0  0  0
    9.3820  -13.1706    0.0000 C   0  0  0  0  0  0  0  0  0  0  0  0
    9.3699  -14.7770    0.0000 C   0  0  0  0  0  0  0  0  0  0  0  0
  3  1  1  0     0  0
  1  5  2  0     0  0
  5  6  1  0     0  0
  6  4  2  0     0  0
  4  2  1  0     0  0
  2  3  2  0     0  0
  4  9  1  0     0  0
  9 10  2  0     0  0
 10  8  1  0     0  0
  8  7  2  0     0  0
  7  2  1  0     0  0
  9 13  1  0     0  0
 13 14  2  0     0  0
 14 12  1  0     0  0
 12 11  2  0     0  0
 11 10  1  0     0  0
  6 16  1  0     0  0
 16 15  2  0     0  0
 15 13  1  0     0  0
  7 17  1  0     0  0
  3 18  1  0     0  0
 11 19  1  0     0  0
 19 20  1  0     0  0
 22 20  2  0     0  0
 20 24  1  0     0  0
 24 25  2  0     0  0
 25 23  1  0     0  0
 23 21  2  0     0  0
 21 22  1  0     0  0
 23 28  1  0     0  0
 28 29  2  0     0  0
 29 27  1  0     0  0
 27 26  2  0     0  0
 26 21  1  0     0  0
 28 30  1  0     0  0
 30 31  1  0     0  0
 31 32  1  0     0  0
 32 33  1  0     0  0
 33 29  1  0     0  0
 32 34  2  0     0  0
 27 35  1  0     0  0
 14 36  1  0     0  0
 15 37  1  0     0  0
 22 38  1  0     0  0
 26 39  1  0     0  0
 35 40  1  0     0  0
 42 40  1  0     0  0
 40 44  2  0     0  0
 44 45  1  0     0  0
 45 43  2  0     0  0
 43 41  1  0     0  0
 41 42  2  0     0  0
 41 46  1  0     0  0
 43 47  1  0     0  0
 45 48  1  0     0  0
 50 47  1  0     0  0
 47 52  2  0     0  0
 52 53  1  0     0  0
 53 51  2  0     0  0
 51 49  1  0     0  0
 49 50  2  0     0  0
 52 48  1  0     0  0
 51 54  1  0     0  0
 54 55  1  0     0  0
 55 59  2  0     0  0
 59 58  1  0     0  0
 58 56  1  0     0  0
 56 57  2  0     0  0
 57 55  1  0     0  0
 57 60  1  0     0  0
 53 61  1  0     0  0
 61 62  1  0     0  0
 62 63  1  0     0  0
 65 63  1  0     0  0
 63 67  2  0     0  0
 67 68  1  0     0  0
 68 66  2  0     0  0
 66 64  1  0     0  0
 64 65  2  0     0  0
 65 69  1  0     0  0
 44 70  1  0     0  0
 70 71  2  0     0  0
 70 72  1  0     0  0
 68 73  1  0     0  0
 64 74  1  0     0  0
 74 75  1  0     0  0
 75 76  1  0     0  0
 78 76  1  0     0  0
 76 80  2  0     0  0
 80 81  1  0     0  0
 81 79  2  0     0  0
 79 77  1  0     0  0
 77 78  2  0     0  0
 79 84  1  0     0  0
 84 83  2  0     0  0
 83 82  1  0     0  0
 82 77  1  0     0  0
 84 87  1  0     0  0
 87 88  2  0     0  0
 88 86  1  0     0  0
 86 85  2  0     0  0
 85 83  1  0     0  0
 86 89  1  0     0  0
 87 90  1  0     0  0
 78 91  1  0     0  0
 73 92  1  0     0  0
 94 92  1  0     0  0
 92 96  2  0     0  0
 96 97  1  0     0  0
 97 95  2  0     0  0
 95 93  1  0     0  0
 93 94  2  0     0  0
 93 98  1  0     0  0
 98 99  1  0     0  0
 99100  1  0     0  0
102100  2  0     0  0
100104  1  0     0  0
104105  2  0     0  0
105103  1  0     0  0
103101  2  0     0  0
101102  1  0     0  0
101108  1  0     0  0
108107  2  0     0  0
107106  1  0     0  0
106102  1  0     0  0
108111  1  0     0  0
111112  2  0     0  0
112110  1  0     0  0
110109  2  0     0  0
109107  1  0     0  0
110113  1  0     0  0
112114  1  0     0  0
114115  1  0     0  0
117115  1  0     0  0
115119  2  0     0  0
119120  1  0     0  0
120118  2  0     0  0
118116  1  0     0  0
116117  2  0     0  0
118121  1  0     0  0
123121  1  0     0  0
121125  2  0     0  0
125126  1  0     0  0
126124  2  0     0  0
124122  1  0     0  0
122123  2  0     0  0
122127  1  0     0  0
104128  1  0     0  0
105129  1  0     0  0
129130  1  0     0  0
130134  1  0     0  0
134133  2  0     0  0
133131  1  0     0  0
131132  1  0     0  0
132130  2  0     0  0
 97135  1  0     0  0
135136  1  0     0  0
136137  1  0     0  0
137138  1  0     0  0
138 95  1  0     0  0
136139  1  0     0  0
139140  1  0     0  0
140141  1  0     0  0
141142  1  0     0  0
142137  1  0     0  0
 31143  1  0     0  0
143139  1  0     0  0
140144  1  0     0  0
144145  1  0     0  0
145146  1  0     0  0
148146  2  0     0  0
146150  1  0     0  0
150151  2  0     0  0
151149  1  0     0  0
149147  2  0     0  0
147148  1  0     0  0
151154  1  0     0  0
154155  2  0     0  0
155153  1  0     0  0
153152  2  0     0  0
152149  1  0     0  0
154158  1  0     0  0
158159  2  0     0  0
159157  1  0     0  0
157156  2  0     0  0
156155  1  0     0  0
147160  1  0     0  0
152161  1  0     0  0
157164  1  0     0  0
164165  2  0     0  0
165163  1  0     0  0
163162  2  0     0  0
162156  1  0     0  0
163168  1  0     0  0
168169  2  0     0  0
169167  1  0     0  0
167166  2  0     0  0
166162  1  0     0  0
167170  1  0     0  0
170171  1  0     0  0
171172  1  0     0  0
172173  1  0     0  0
175173  1  0     0  0
173177  2  0     0  0
177178  1  0     0  0
178176  2  0     0  0
176174  1  0     0  0
174175  2  0     0  0
174181  1  0     0  0
181182  2  0     0  0
182180  1  0     0  0
180179  2  0     0  0
179175  1  0     0  0
177183  1  0     0  0
178184  1  0     0  0
176186  1  0     0  0
186187  2  0     0  0
187185  1  0     0  0
185181  1  0     0  0
185190  2  0     0  0
190189  1  0     0  0
189188  1  0     0  0
188182  1  0     0  0
189193  2  0     0  0
193194  1  0     0  0
194192  2  0     0  0
192191  1  0     0  0
191188  2  0     0  0
194195  1  0     0  0
195196  1  0     0  0
196197  1  0     0  0
197198  1  0     0  0
198192  1  0     0  0
195199  1  0     0  0
199200  1  0     0  0
200201  1  0     0  0
201202  1  0     0  0
202196  1  0     0  0
200203  1  0     0  0
186204  1  0     0  0
160205  1  0     0  0
207205  1  0     0  0
205209  2  0     0  0
209210  1  0     0  0
210208  2  0     0  0
208206  1  0     0  0
206207  2  0     0  0
206213  1  0     0  0
213211  2  0     0  0
211212  1  0     0  0
212207  1  0     0  0
M  END
